
 ===================================================
  XFOIL Version 6.97
  Copyright (C) 2000   Mark Drela, Harold Youngren

  This software comes with ABSOLUTELY NO WARRANTY,
    subject to the GNU General Public License.

  Caveat computor
 ===================================================

 File  xfoil.def  not found

   QUIT    Exit program

  .OPER    Direct operating point(s)
  .MDES    Complex mapping design routine
  .QDES    Surface speed design routine
  .GDES    Geometry design routine

   SAVE f  Write airfoil to labeled coordinate file
   PSAV f  Write airfoil to plain coordinate file
   ISAV f  Write airfoil to ISES coordinate file
   MSAV f  Write airfoil to MSES coordinate file
   REVE    Reverse written-airfoil node ordering
   DELI i  Change written-airfoil file delimiters

   LOAD f  Read buffer airfoil from coordinate file
   NACA i  Set NACA 4,5-digit airfoil and buffer airfoil
   INTE    Set buffer airfoil by interpolating two airfoils
   NORM    Buffer airfoil normalization toggle
   HALF    Halve the number of points in buffer airfoil
   XYCM rr Change CM reference location, currently  0.25000 0.00000

   BEND    Display structural properties of current airfoil

   PCOP    Set current-airfoil panel nodes directly from buffer airfoil points
   PANE    Set current-airfoil panel nodes ( 160 ) based on curvature
  .PPAR    Show/change paneling

  .PLOP    Plotting options

   WDEF f  Write  current-settings file
   RDEF f  Reread current-settings file
   NAME s  Specify new airfoil name
   NINC    Increment name version number

   Z       Zoom    | (available in all menus)
   U       Unzoom  | 

 XFOIL   c>   Max thickness =     0.120034  at x =   0.301
 Max camber    =     0.039999  at x =   0.398

 Buffer airfoil set using 239 points

 Blunt trailing edge.  Gap =  0.00252

 Paneling parameters used...
   Number of panel nodes       160
   Panel bunching parameter    1.000
   TE/LE panel density ratio   0.150
   Refined-area/LE panel density ratio    0.200
   Top    side refined area x/c limits  1.000 1.000
   Bottom side refined area x/c limits  1.000 1.000

 XFOIL   c>  
.OPERi   c>  
 M  =    0.0000
 Re =  0.1000E+06

.OPERv   c>   Current iteration limit:          20

Enter new iteration limit   i>  
.OPERv   c>  
 Polar  1 newly created for accumulation
 Airfoil archived with polar: NACA 4412                                       

Enter  polar save filename  OR  <return> for no file   s>  
 New polar save file available

Enter  polar dump filename  OR  <return> for no file   s>  
 New polar dump file available

 Polar accumulation enabled

.OPERva   c>  
Enter first alfa value (deg)   r>  
Enter last  alfa value (deg)   r>  
Enter alfa increment   (deg)   r>   Calculating unit vorticity distributions ...
 Calculating wake trajectory ...
 Calculating source influence matrix ...

 Solving BL system ...

 Initializing BL ...
    side            1  ...
 MRCHUE: Inverse mode at  59     Hk =   3.800
 MRCHUE: Inverse mode at  60     Hk =   4.058
 MRCHUE: Inverse mode at  61     Hk =   4.311
 MRCHUE: Inverse mode at  62     Hk =   4.558
 MRCHUE: Inverse mode at  63     Hk =   4.799
 MRCHUE: Inverse mode at  64     Hk =   5.032
 MRCHUE: Inverse mode at  65     Hk =   5.255
 MRCHUE: Convergence failed at  66  side 1    Res =  0.1623E+01
 MRCHUE: Inverse mode at  67     Hk =   5.441
 MRCHUE: Convergence failed at  68  side 1    Res =  0.2100E+01
 MRCHUE: Inverse mode at  69     Hk =   5.557
    side            2  ...
 MRCHUE: Inverse mode at  24     Hk =   3.858
 MRCHUE: Inverse mode at  25     Hk =   4.288
 MRCHUE: Inverse mode at  26     Hk =   4.709
 MRCHUE: Inverse mode at  27     Hk =   5.129
 MRCHUE: Convergence failed at  28  side 2    Res =  0.5826E+01
 MRCHUE: Inverse mode at  29     Hk =   5.592
 MRCHUE: Convergence failed at  30  side 2    Res =  0.3355E+01
 MRCHUE: Inverse mode at  31     Hk =   6.120
 MRCHUE: Inverse mode at  32     Hk =   6.674
 MRCHUE: Inverse mode at  33     Hk =   7.266
 MRCHUE: Inverse mode at  34     Hk =   7.904
 MRCHUE: Inverse mode at  35     Hk =   8.594
 MRCHUE: Inverse mode at  36     Hk =   9.335
 MRCHUE: Inverse mode at  37     Hk =   7.114
 MRCHUE: Inverse mode at  38     Hk =   4.357
 MRCHUE: Inverse mode at  39     Hk =   2.618
 MRCHUE: Inverse mode at  40     Hk =   2.500
 MRCHUE: Inverse mode at  41     Hk =   2.500
 MRCHUE: Inverse mode at  42     Hk =   2.500
 MRCHUE: Inverse mode at  43     Hk =   2.500
 MRCHUE: Inverse mode at  44     Hk =   2.500
 MRCHUE: Inverse mode at  45     Hk =   2.500
 MRCHUE: Inverse mode at  46     Hk =   2.500
 MRCHUE: Inverse mode at  47     Hk =   2.500
 MRCHUE: Inverse mode at  48     Hk =   2.500
 MRCHUE: Inverse mode at  49     Hk =   2.500
 MRCHUE: Inverse mode at  50     Hk =   2.500
 MRCHUE: Inverse mode at  51     Hk =   2.500
 MRCHUE: Inverse mode at  52     Hk =   2.500
 MRCHUE: Inverse mode at  53     Hk =   2.500
 MRCHUE: Inverse mode at  54     Hk =   2.500
 MRCHUE: Inverse mode at  55     Hk =   2.500
 MRCHUE: Inverse mode at  56     Hk =   2.500
 MRCHUE: Inverse mode at  57     Hk =   2.500
 MRCHUE: Inverse mode at  58     Hk =   2.500
 MRCHUE: Inverse mode at  59     Hk =   2.500
 MRCHUE: Inverse mode at  60     Hk =   2.500
 MRCHUE: Inverse mode at  61     Hk =   2.500
 MRCHUE: Inverse mode at  62     Hk =   2.500
 MRCHUE: Inverse mode at  63     Hk =   2.500
 MRCHUE: Inverse mode at  64     Hk =   2.500
 MRCHUE: Inverse mode at  65     Hk =   2.500
 MRCHUE: Inverse mode at  66     Hk =   2.500
 MRCHUE: Inverse mode at  67     Hk =   2.500
 MRCHUE: Inverse mode at  68     Hk =   2.500
 MRCHUE: Inverse mode at  69     Hk =   2.500
 MRCHUE: Inverse mode at  70     Hk =   2.500
 MRCHUE: Inverse mode at  71     Hk =   2.500
 MRCHUE: Inverse mode at  72     Hk =   2.500
 MRCHUE: Inverse mode at  73     Hk =   2.500
 MRCHUE: Inverse mode at  74     Hk =   2.500
 MRCHUE: Inverse mode at  75     Hk =   2.500
 MRCHUE: Inverse mode at  76     Hk =   2.500
 MRCHUE: Inverse mode at  77     Hk =   2.500
 MRCHUE: Inverse mode at  78     Hk =   2.500
 MRCHUE: Inverse mode at  79     Hk =   2.500
 MRCHUE: Inverse mode at  80     Hk =   2.500
 MRCHUE: Inverse mode at  81     Hk =   2.500
 MRCHUE: Inverse mode at  82     Hk =   2.500
 MRCHUE: Inverse mode at  83     Hk =   2.500
 MRCHUE: Inverse mode at  84     Hk =   2.500
 MRCHUE: Inverse mode at  85     Hk =   2.500
 MRCHUE: Inverse mode at  86     Hk =   2.500
 MRCHUE: Inverse mode at  87     Hk =   2.500
 MRCHUE: Inverse mode at  88     Hk =   2.500
 MRCHUE: Inverse mode at  89     Hk =   2.500
 MRCHUE: Inverse mode at  90     Hk =   2.500
 MRCHUE: Inverse mode at  91     Hk =   2.500
 MRCHUE: Inverse mode at  92     Hk =   2.500
 MRCHUE: Convergence failed at  93  side 2    Res =  0.6481E+01

 MRCHDU: Convergence failed at  68  side 1    Res =  0.4676E+01
 MRCHDU: Convergence failed at  69  side 1    Res =  0.5202E+01
 MRCHDU: Convergence failed at  30  side 2    Res =  0.2212E+01
 MRCHDU: Convergence failed at  31  side 2    Res =  0.3269E+01
 MRCHDU: Convergence failed at  32  side 2    Res =  0.6484E+01
 MRCHDU: Convergence failed at  33  side 2    Res =  0.6451E+03
 MRCHDU: Convergence failed at  34  side 2    Res =  0.6966E+01
 MRCHDU: Convergence failed at  35  side 2    Res =  0.3758E+01
 MRCHDU: Convergence failed at  36  side 2    Res =  0.2625E+01
 MRCHDU: Convergence failed at  37  side 2    Res =  0.5532E+01
 MRCHDU: Convergence failed at  38  side 2    Res =  0.1845E+02
 MRCHDU: Convergence failed at  39  side 2    Res =  0.1799E+02
 MRCHDU: Convergence failed at  40  side 2    Res =  0.1545E+02
 MRCHDU: Convergence failed at  41  side 2    Res =  0.3503E+02
 MRCHDU: Convergence failed at  42  side 2    Res =  0.1011E+04
 MRCHDU: Convergence failed at  43  side 2    Res =  0.2417E+03
 MRCHDU: Convergence failed at  44  side 2    Res =  0.9449E+02
 MRCHDU: Convergence failed at  45  side 2    Res =  0.6222E+02
 MRCHDU: Convergence failed at  46  side 2    Res =  0.4876E+02
 MRCHDU: Convergence failed at  47  side 2    Res =  0.3987E+02
 MRCHDU: Convergence failed at  48  side 2    Res =  0.2138E+02
 MRCHDU: Convergence failed at  49  side 2    Res =  0.2420E+02
 MRCHDU: Convergence failed at  50  side 2    Res =  0.4801E+03
 MRCHDU: Convergence failed at  51  side 2    Res =  0.1732E+03
 MRCHDU: Convergence failed at  52  side 2    Res =  0.1103E+03
 MRCHDU: Convergence failed at  53  side 2    Res =  0.8304E+02
 MRCHDU: Convergence failed at  54  side 2    Res =  0.6777E+02
 MRCHDU: Convergence failed at  55  side 2    Res =  0.5825E+02
 MRCHDU: Convergence failed at  56  side 2    Res =  0.5170E+02
 MRCHDU: Convergence failed at  57  side 2    Res =  0.4694E+02
 MRCHDU: Convergence failed at  58  side 2    Res =  0.9701E+02
 MRCHDU: Convergence failed at  59  side 2    Res =  0.1195E+03
 MRCHDU: Convergence failed at  60  side 2    Res =  0.1530E+03
 MRCHDU: Convergence failed at  61  side 2    Res =  0.2075E+03
 MRCHDU: Convergence failed at  62  side 2    Res =  0.3124E+03
 MRCHDU: Convergence failed at  63  side 2    Res =  0.6004E+03
 MRCHDU: Convergence failed at  64  side 2    Res =  0.5158E+02
 MRCHDU: Convergence failed at  65  side 2    Res =  0.4606E+02
 MRCHDU: Convergence failed at  66  side 2    Res =  0.4241E+02
 MRCHDU: Convergence failed at  67  side 2    Res =  0.3950E+02
 MRCHDU: Convergence failed at  68  side 2    Res =  0.3725E+02
 MRCHDU: Convergence failed at  69  side 2    Res =  0.3516E+02
 MRCHDU: Convergence failed at  70  side 2    Res =  0.3347E+02
 MRCHDU: Convergence failed at  71  side 2    Res =  0.3196E+02
 MRCHDU: Convergence failed at  72  side 2    Res =  0.3076E+02
 MRCHDU: Convergence failed at  73  side 2    Res =  0.2965E+02
 MRCHDU: Convergence failed at  74  side 2    Res =  0.2863E+02
 MRCHDU: Convergence failed at  75  side 2    Res =  0.2773E+02
 MRCHDU: Convergence failed at  76  side 2    Res =  0.2697E+02
 MRCHDU: Convergence failed at  77  side 2    Res =  0.3057E+02
 MRCHDU: Convergence failed at  78  side 2    Res =  0.2988E+02
 MRCHDU: Convergence failed at  79  side 2    Res =  0.2923E+02
 MRCHDU: Convergence failed at  80  side 2    Res =  0.2860E+02
 MRCHDU: Convergence failed at  81  side 2    Res =  0.2803E+02
 MRCHDU: Convergence failed at  82  side 2    Res =  0.2748E+02
 MRCHDU: Convergence failed at  83  side 2    Res =  0.2697E+02
 MRCHDU: Convergence failed at  84  side 2    Res =  0.2648E+02
 MRCHDU: Convergence failed at  85  side 2    Res =  0.2601E+02
 MRCHDU: Convergence failed at  86  side 2    Res =  0.2555E+02
 MRCHDU: Convergence failed at  87  side 2    Res =  0.2509E+02
 MRCHDU: Convergence failed at  88  side 2    Res =  0.2460E+02
 MRCHDU: Convergence failed at  89  side 2    Res =  0.2404E+02
 MRCHDU: Convergence failed at  90  side 2    Res =  0.2338E+02
 MRCHDU: Convergence failed at  91  side 2    Res =  0.2262E+02
 MRCHDU: Convergence failed at  92  side 2    Res =  0.2633E+02
 MRCHDU: Convergence failed at  93  side 2    Res =  0.1622E+02
 Side 1 forced transition at x/c =  1.0000   69
 Side 2  free  transition at x/c =  0.0813   37

   1   rms: 0.2906E+01   max: 0.2495E+02   C at  115  2   RLX: 0.060
       a =-10.000      CL = -5.2799
      Cm =  1.2634     CD =  0.00261   =>   CDf =  0.00339    CDp = -0.00077

 Side 1 forced transition at x/c =  1.0000   69
 Side 2  free  transition at x/c =  0.0844   37

   2   rms: 0.1892E+01   max: 0.8809E+01   C at   37  2   RLX: 0.113
       a =-10.000      CL = -4.4826
      Cm =  1.0319     CD =  0.00469   =>   CDf =  0.03259    CDp = -0.02790

 Side 1 forced transition at x/c =  1.0000   69
 Side 2  free  transition at x/c =  0.0656   36

   3   rms: 0.1499E+01   max: 0.2266E+01   D at   97  2   RLX: 0.135
       a =-10.000      CL = -3.8285
      Cm =  0.8297     CD =  0.00596   =>   CDf =  0.02860    CDp = -0.02264

 Side 1 forced transition at x/c =  1.0000   69
 Side 2  free  transition at x/c =  0.0623   35

   4   rms: 0.1264E+01   max: 0.1826E+01   D at   98  2   RLX: 0.165
       a =-10.000      CL = -3.1987
      Cm =  0.6311     CD =  0.00749   =>   CDf =  0.02583    CDp = -0.01834

 Side 1 forced transition at x/c =  1.0000   69
 Side 2  free  transition at x/c =  0.0606   35

   5   rms: 0.1135E+01   max: 0.1744E+01   D at  100  2   RLX: 0.210
       a =-10.000      CL = -2.5913
      Cm =  0.4415     CD =  0.01007   =>   CDf =  0.02226    CDp = -0.01219

 Side 1 forced transition at x/c =  1.0000   69
 Side 2  free  transition at x/c =  0.0605   35

   6   rms: 0.1008E+01   max: 0.1655E+01   D at  103  2   RLX: 0.287
       a =-10.000      CL = -2.0116
      Cm =  0.2614     CD =  0.01479   =>   CDf =  0.01843    CDp = -0.00364

 Side 1 forced transition at x/c =  1.0000   69
 Side 2  free  transition at x/c =  0.0633   36

   7   rms: 0.2700E+01   max: 0.2612E+02   T at   36  2   RLX: 0.057
       a =-10.000      CL = -1.9196
      Cm =  0.2426     CD =  0.02279   =>   CDf =  0.01288    CDp =  0.00991

 MRCHDU: Convergence failed at  36  side 2    Res =  0.9714E+02
 MRCHDU: Convergence failed at  37  side 2    Res =  0.2537E+02
 MRCHDU: Convergence failed at  38  side 2    Res =  0.4272E+02
 MRCHDU: Convergence failed at  39  side 2    Res =  0.5691E+02
 MRCHDU: Convergence failed at  40  side 2    Res =  0.7789E+02
 MRCHDU: Convergence failed at  41  side 2    Res =  0.8550E+02
 MRCHDU: Convergence failed at  42  side 2    Res =  0.2333E+03
 MRCHDU: Convergence failed at  43  side 2    Res =  0.9806E+02
 MRCHDU: Convergence failed at  44  side 2    Res =  0.4993E+03
 MRCHDU: Convergence failed at  45  side 2    Res =  0.7679E+02
 MRCHDU: Convergence failed at  46  side 2    Res =  0.8576E+02
 MRCHDU: Convergence failed at  47  side 2    Res =  0.8860E+02
 MRCHDU: Convergence failed at  48  side 2    Res =  0.9430E+02
 MRCHDU: Convergence failed at  49  side 2    Res =  0.3527E+02
 MRCHDU: Convergence failed at  50  side 2    Res =  0.1057E+03
 MRCHDU: Convergence failed at  51  side 2    Res =  0.4293E+02
 MRCHDU: Convergence failed at  52  side 2    Res =  0.5257E+02
 MRCHDU: Convergence failed at  53  side 2    Res =  0.4844E+02
 MRCHDU: Convergence failed at  54  side 2    Res =  0.4134E+02
 MRCHDU: Convergence failed at  55  side 2    Res =  0.5069E+02
 MRCHDU: Convergence failed at  56  side 2    Res =  0.7144E+02
 MRCHDU: Convergence failed at  57  side 2    Res =  0.4120E+02
 MRCHDU: Convergence failed at  58  side 2    Res =  0.4519E+02
 MRCHDU: Convergence failed at  59  side 2    Res =  0.5132E+02
 MRCHDU: Convergence failed at  60  side 2    Res =  0.5466E+02
 MRCHDU: Convergence failed at  61  side 2    Res =  0.5838E+02
 MRCHDU: Convergence failed at  62  side 2    Res =  0.1676E+03
 MRCHDU: Convergence failed at  63  side 2    Res =  0.1728E+03
 MRCHDU: Convergence failed at  64  side 2    Res =  0.1795E+03
 MRCHDU: Convergence failed at  65  side 2    Res =  0.1868E+03
 MRCHDU: Convergence failed at  66  side 2    Res =  0.1945E+03
 MRCHDU: Convergence failed at  67  side 2    Res =  0.1815E+03
 MRCHDU: Convergence failed at  68  side 2    Res =  0.1929E+03
 MRCHDU: Convergence failed at  69  side 2    Res =  0.2064E+03
 MRCHDU: Convergence failed at  70  side 2    Res =  0.2209E+03
 MRCHDU: Convergence failed at  71  side 2    Res =  0.8129E+02
 MRCHDU: Convergence failed at  72  side 2    Res =  0.7989E+02
 MRCHDU: Convergence failed at  73  side 2    Res =  0.9764E+02
 MRCHDU: Convergence failed at  74  side 2    Res =  0.9507E+02
 MRCHDU: Convergence failed at  75  side 2    Res =  0.9270E+02
 MRCHDU: Convergence failed at  76  side 2    Res =  0.9057E+02
 MRCHDU: Convergence failed at  77  side 2    Res =  0.8852E+02
 MRCHDU: Convergence failed at  78  side 2    Res =  0.8669E+02
 MRCHDU: Convergence failed at  79  side 2    Res =  0.8490E+02
 MRCHDU: Convergence failed at  80  side 2    Res =  0.8326E+02
 MRCHDU: Convergence failed at  81  side 2    Res =  0.8168E+02
 MRCHDU: Convergence failed at  82  side 2    Res =  0.8019E+02
 MRCHDU: Convergence failed at  83  side 2    Res =  0.7879E+02
 MRCHDU: Convergence failed at  84  side 2    Res =  0.7740E+02
 MRCHDU: Convergence failed at  85  side 2    Res =  0.7609E+02
 MRCHDU: Convergence failed at  86  side 2    Res =  0.7473E+02
 MRCHDU: Convergence failed at  87  side 2    Res =  0.7335E+02
 MRCHDU: Convergence failed at  88  side 2    Res =  0.7194E+02
 MRCHDU: Convergence failed at  89  side 2    Res =  0.7038E+02
 MRCHDU: Convergence failed at  90  side 2    Res =  0.6868E+02
 MRCHDU: Convergence failed at  91  side 2    Res =  0.6689E+02
 MRCHDU: Convergence failed at  92  side 2    Res =  0.6516E+02
 MRCHDU: Convergence failed at  93  side 2    Res =  0.6389E+02
 Side 1 forced transition at x/c =  1.0000   69
 Side 2  free  transition at x/c =  0.0612   35

   8   rms: 0.2107E+01   max: 0.7349E+01   D at   96  2   RLX: 0.144
       a =-10.000      CL = -3.9820
      Cm =  0.9441     CD =  0.00755   =>   CDf =  0.00353    CDp =  0.00403

 Side 1 forced transition at x/c =  1.0000   70
 Side 2  free  transition at x/c =  0.0644   35

   9   rms: 0.5787E+01   max: -.3674E+02   T at   35  2   RLX: 0.014
       a =-10.000      CL = -2.9136
      Cm =  0.5985     CD =  0.06463   =>   CDf =  0.00468    CDp =  0.05994

 Side 1 forced transition at x/c =  1.0000   70
 Side 2  free  transition at x/c =  0.0690   35

  10   rms: 0.1226E+01   max: -.8096E+01   T at   35  2   RLX: 0.062
       a =-10.000      CL = -2.7605
      Cm =  0.5627     CD =  0.06896   =>   CDf =  0.00480    CDp =  0.06416

 Side 1 forced transition at x/c =  1.0000   70
 Side 2  free  transition at x/c =  0.0718   35

  11   rms: 0.9488E+00   max: -.3795E+01   C at   70  1   RLX: 0.132
       a =-10.000      CL = -2.4817
      Cm =  0.4933     CD =  0.08002   =>   CDf =  0.00501    CDp =  0.07501

 Side 1 forced transition at x/c =  1.0000   70
 Side 2  free  transition at x/c =  0.0721   35

  12   rms: 0.9177E+00   max: 0.1568E+01   D at  100  2   RLX: 0.234
       a =-10.000      CL = -1.9160
      Cm =  0.3515     CD =  0.09174   =>   CDf =  0.00550    CDp =  0.08624

 Side 1 forced transition at x/c =  1.0000   71
 Side 2  free  transition at x/c =  0.0726   34

  13   rms: 0.7728E+00   max: -.1105E+01   C at  103  2   RLX: 0.294
       a =-10.000      CL = -1.3563
      Cm =  0.2119     CD =  0.10452   =>   CDf =  0.00577    CDp =  0.09874

 Side 1 forced transition at x/c =  1.0000   72
 Side 2  free  transition at x/c =  0.0731   33

  14   rms: 0.5373E+00   max: -.9308E+00   C at  104  2   RLX: 0.467
       a =-10.000      CL = -0.8200
      Cm =  0.0697     CD =  0.10526   =>   CDf =  0.00592    CDp =  0.09934

 Side 1 forced transition at x/c =  1.0000   73
 Side 2  free  transition at x/c =  0.1305   37

  15   rms: 0.2170E+01   max: 0.2408E+02   T at   37  2   RLX: 0.062
       a =-10.000      CL = -0.7199
      Cm = -0.0140     CD =  0.10859   =>   CDf =  0.00557    CDp =  0.10302

 MRCHDU: Convergence failed at  38  side 2    Res =  0.2000E+02
 MRCHDU: Convergence failed at  39  side 2    Res =  0.8653E+02
 MRCHDU: Convergence failed at  40  side 2    Res =  0.1220E+03
 MRCHDU: Convergence failed at  41  side 2    Res =  0.5015E+02
 MRCHDU: Convergence failed at  42  side 2    Res =  0.9085E+02
 MRCHDU: Convergence failed at  43  side 2    Res =  0.5873E+02
 MRCHDU: Convergence failed at  44  side 2    Res =  0.8704E+02
 MRCHDU: Convergence failed at  45  side 2    Res =  0.8452E+02
 MRCHDU: Convergence failed at  46  side 2    Res =  0.7915E+03
 MRCHDU: Convergence failed at  47  side 2    Res =  0.5392E+03
 MRCHDU: Convergence failed at  48  side 2    Res =  0.1236E+03
 MRCHDU: Convergence failed at  49  side 2    Res =  0.8243E+02
 MRCHDU: Convergence failed at  50  side 2    Res =  0.7469E+02
 MRCHDU: Convergence failed at  51  side 2    Res =  0.1034E+03
 MRCHDU: Convergence failed at  52  side 2    Res =  0.5095E+02
 MRCHDU: Convergence failed at  53  side 2    Res =  0.5997E+02
 MRCHDU: Convergence failed at  54  side 2    Res =  0.1317E+03
 MRCHDU: Convergence failed at  55  side 2    Res =  0.7334E+02
 MRCHDU: Convergence failed at  56  side 2    Res =  0.8404E+02
 MRCHDU: Convergence failed at  57  side 2    Res =  0.1219E+03
 MRCHDU: Convergence failed at  58  side 2    Res =  0.1274E+03
 MRCHDU: Convergence failed at  59  side 2    Res =  0.1540E+03
 MRCHDU: Convergence failed at  60  side 2    Res =  0.1852E+03
 MRCHDU: Convergence failed at  61  side 2    Res =  0.2488E+03
 MRCHDU: Convergence failed at  62  side 2    Res =  0.1332E+03
 MRCHDU: Convergence failed at  63  side 2    Res =  0.1447E+03
 MRCHDU: Convergence failed at  64  side 2    Res =  0.8078E+03
 MRCHDU: Convergence failed at  65  side 2    Res =  0.3408E+03
 MRCHDU: Convergence failed at  66  side 2    Res =  0.2550E+03
 MRCHDU: Convergence failed at  67  side 2    Res =  0.9460E+03
 MRCHDU: Convergence failed at  68  side 2    Res =  0.1156E+03
 MRCHDU: Convergence failed at  69  side 2    Res =  0.9603E+02
 MRCHDU: Convergence failed at  70  side 2    Res =  0.8220E+02
 MRCHDU: Convergence failed at  71  side 2    Res =  0.1800E+03
 MRCHDU: Convergence failed at  72  side 2    Res =  0.7230E+02
 MRCHDU: Convergence failed at  73  side 2    Res =  0.5637E+02
 MRCHDU: Convergence failed at  74  side 2    Res =  0.5815E+02
 MRCHDU: Convergence failed at  75  side 2    Res =  0.6036E+02
 MRCHDU: Convergence failed at  76  side 2    Res =  0.6345E+02
 MRCHDU: Convergence failed at  77  side 2    Res =  0.7062E+02
 MRCHDU: Convergence failed at  78  side 2    Res =  0.6855E+02
 MRCHDU: Convergence failed at  79  side 2    Res =  0.8226E+02
 MRCHDU: Convergence failed at  80  side 2    Res =  0.9032E+02
 MRCHDU: Convergence failed at  81  side 2    Res =  0.9953E+02
 MRCHDU: Convergence failed at  82  side 2    Res =  0.1547E+03
 MRCHDU: Convergence failed at  83  side 2    Res =  0.1559E+03
 MRCHDU: Convergence failed at  84  side 2    Res =  0.1586E+03
 MRCHDU: Convergence failed at  85  side 2    Res =  0.1951E+03
 MRCHDU: Convergence failed at  86  side 2    Res =  0.2458E+03
 MRCHDU: Convergence failed at  87  side 2    Res =  0.1610E+03
 MRCHDU: Convergence failed at  88  side 2    Res =  0.1572E+03
 MRCHDU: Convergence failed at  89  side 2    Res =  0.2500E+03
 MRCHDU: Convergence failed at  90  side 2    Res =  0.2414E+03
 MRCHDU: Convergence failed at 105  side 2    Res =  0.3992E+01
 MRCHDU: Convergence failed at 106  side 2    Res =  0.7525E+02
 Side 1 forced transition at x/c =  1.0000   72
 Side 2  free  transition at x/c =  0.1094   36

  16   rms: 0.8619E+01   max: -.1362E+03   T at   36  2   RLX: 0.004
       a =-10.000      CL = -1.9072
      Cm =  0.4117     CD =  0.02772   =>   CDf =  0.00536    CDp =  0.02236

 Side 1 forced transition at x/c =  1.0000   72
 Side 2  free  transition at x/c =  0.1090   36

  17   rms: 0.7015E+00   max: -.3108E+01   T at   36  2   RLX: 0.161
       a =-10.000      CL = -1.4239
      Cm =  0.2499     CD =  0.11505   =>   CDf =  0.00561    CDp =  0.10945

 Side 1 forced transition at x/c =  1.0000   72
 Side 2  free  transition at x/c =  0.1071   36

  18   rms: 0.6073E+00   max: 0.1169E+01   D at  100  2   RLX: 0.424
       a =-10.000      CL = -0.9002
      Cm =  0.1207     CD =  0.09794   =>   CDf =  0.00588    CDp =  0.09206

 Side 1 forced transition at x/c =  1.0000   73
 Side 2  free  transition at x/c =  0.1078   35

  19   rms: 0.4194E+00   max: -.9484E+00   T at  111  2   RLX: 0.527
       a =-10.000      CL = -0.5076
      Cm =  0.0233     CD =  0.09464   =>   CDf =  0.00606    CDp =  0.08858

 Side 1 forced transition at x/c =  1.0000   74
 Side 2  free  transition at x/c =  0.1098   34

  20   rms: 0.2477E+00   max: -.6879E+00   D at  108  2   RLX: 0.727
       a =-10.000      CL = -0.3093
      Cm = -0.0320     CD =  0.11214   =>   CDf =  0.00598    CDp =  0.10617

 Side 1 forced transition at x/c =  1.0000   74
 Side 2  free  transition at x/c =  0.1254   35

  21   rms: 0.1801E+00   max: 0.1052E+01   T at   35  2   RLX: 0.730
       a =-10.000      CL = -0.2584
      Cm = -0.0398     CD =  0.11953   =>   CDf =  0.00572    CDp =  0.11381

 Side 1 forced transition at x/c =  1.0000   75
 Side 2  free  transition at x/c =  0.1109   33

  22   rms: 0.1928E+00   max: 0.1770E+01   T at    2  1   RLX: 0.651
       a =-10.000      CL = -0.2915
      Cm = -0.0342     CD =  0.11551   =>   CDf =  0.00564    CDp =  0.10987

 Side 1 forced transition at x/c =  1.0000   74
 Side 2  free  transition at x/c =  0.1113   34

  23   rms: 0.1291E+00   max: -.6447E+00   D at  108  2   RLX: 0.776
       a =-10.000      CL = -0.3156
      Cm = -0.0409     CD =  0.12157   =>   CDf =  0.00560    CDp =  0.11597

 Side 1 forced transition at x/c =  1.0000   74
 Side 2  free  transition at x/c =  0.1084   34

  24   rms: 0.3886E-01   max: -.3272E+00   D at  108  2
       a =-10.000      CL = -0.3232
      Cm = -0.0406     CD =  0.11227   =>   CDf =  0.00541    CDp =  0.10686

 Side 1 forced transition at x/c =  1.0000   74
 Side 2  free  transition at x/c =  0.1093   34

  25   rms: 0.8372E-02   max: 0.6431E-01   T at   34  2
       a =-10.000      CL = -0.3263
      Cm = -0.0393     CD =  0.11584   =>   CDf =  0.00529    CDp =  0.11055

 Side 1 forced transition at x/c =  1.0000   74
 Side 2  free  transition at x/c =  0.1088   34

  26   rms: 0.1233E-02   max: -.1051E-01   T at   34  2
       a =-10.000      CL = -0.3260
      Cm = -0.0394     CD =  0.11563   =>   CDf =  0.00526    CDp =  0.11037

 Side 1 forced transition at x/c =  1.0000   74
 Side 2  free  transition at x/c =  0.1089   34

  27   rms: 0.3500E-03   max: 0.3690E-02   T at   34  2
       a =-10.000      CL = -0.3262
      Cm = -0.0394     CD =  0.11569   =>   CDf =  0.00526    CDp =  0.11043

 Side 1 forced transition at x/c =  1.0000   74
 Side 2  free  transition at x/c =  0.1089   34

  28   rms: 0.2533E-04   max: -.2543E-03   T at   34  2
       a =-10.000      CL = -0.3262
      Cm = -0.0394     CD =  0.11569   =>   CDf =  0.00526    CDp =  0.11043

 Point added to stored polar  1
 Point written to save file  out.txt                                         
 Point written to dump file log.txt                                         
 Calculating wake trajectory ...
 Calculating source influence matrix ...

 Solving BL system ...

 Side 1 forced transition at x/c =  1.0000   74
 Side 2  free  transition at x/c =  0.1089   34

   1   rms: 0.2024E+00   max: -.2063E+01   T at   34  2   RLX: 0.242
       a = -9.000      CL = -0.3389
      Cm = -0.0419     CD =  0.11246   =>   CDf =  0.00526    CDp =  0.10720

 Side 1 forced transition at x/c =  1.0000   74
 Side 2  free  transition at x/c =  0.1082   34

   2   rms: 0.6095E-01   max: -.5067E+00   T at   34  2   RLX: 0.987
       a = -9.000      CL = -0.3421
      Cm = -0.0413     CD =  0.10593   =>   CDf =  0.00518    CDp =  0.10075

 Side 1 forced transition at x/c =  1.0000   74
 Side 2  free  transition at x/c =  0.1103   34

   3   rms: 0.7521E-01   max: -.3735E+00   D at   34  2
       a = -9.000      CL = -0.3791
      Cm = -0.0431     CD =  0.10825   =>   CDf =  0.00504    CDp =  0.10321

 Side 1 forced transition at x/c =  1.0000   74
 Side 2  free  transition at x/c =  0.1231   35

   4   rms: 0.8117E+00   max: 0.3168E+01   D at   35  2   RLX: 0.473
       a = -9.000      CL = -0.4430
      Cm = -0.0652     CD =  0.06900   =>   CDf =  0.00739    CDp =  0.06161

 MRCHDU: Convergence failed at  55  side 2    Res =  0.1211E+02
 MRCHDU: Convergence failed at  56  side 2    Res =  0.1869E+01
 MRCHDU: Convergence failed at  57  side 2    Res =  0.1406E+01
 MRCHDU: Convergence failed at  58  side 2    Res =  0.1343E+01
 MRCHDU: Convergence failed at  59  side 2    Res =  0.1590E+01
 MRCHDU: Convergence failed at  60  side 2    Res =  0.1916E+01
 MRCHDU: Convergence failed at  61  side 2    Res =  0.2345E+01
 MRCHDU: Convergence failed at  62  side 2    Res =  0.2657E+01
 MRCHDU: Convergence failed at  63  side 2    Res =  0.3715E+01
 MRCHDU: Convergence failed at  64  side 2    Res =  0.4864E+01
 MRCHDU: Convergence failed at  65  side 2    Res =  0.6732E+01
 MRCHDU: Convergence failed at  66  side 2    Res =  0.9870E+01
 MRCHDU: Convergence failed at  67  side 2    Res =  0.1706E+02
 MRCHDU: Convergence failed at  68  side 2    Res =  0.4638E+02
 MRCHDU: Convergence failed at  69  side 2    Res =  0.9604E+02
 MRCHDU: Convergence failed at  70  side 2    Res =  0.2600E+02
 MRCHDU: Convergence failed at  71  side 2    Res =  0.1596E+02
 MRCHDU: Convergence failed at  72  side 2    Res =  0.1107E+02
 MRCHDU: Convergence failed at  73  side 2    Res =  0.9042E+01
 MRCHDU: Convergence failed at  74  side 2    Res =  0.7908E+01
 MRCHDU: Convergence failed at  75  side 2    Res =  0.7134E+01
 MRCHDU: Convergence failed at  76  side 2    Res =  0.6586E+01
 MRCHDU: Convergence failed at  77  side 2    Res =  0.6181E+01
 MRCHDU: Convergence failed at  78  side 2    Res =  0.5860E+01
 MRCHDU: Convergence failed at  79  side 2    Res =  0.5615E+01
 MRCHDU: Convergence failed at  80  side 2    Res =  0.5422E+01
 MRCHDU: Convergence failed at  81  side 2    Res =  0.5270E+01
 MRCHDU: Convergence failed at  82  side 2    Res =  0.5143E+01
 MRCHDU: Convergence failed at  83  side 2    Res =  0.5038E+01
 MRCHDU: Convergence failed at  84  side 2    Res =  0.4942E+01
 MRCHDU: Convergence failed at  85  side 2    Res =  0.4854E+01
 MRCHDU: Convergence failed at  86  side 2    Res =  0.4769E+01
 MRCHDU: Convergence failed at  87  side 2    Res =  0.4565E+01
 MRCHDU: Convergence failed at  88  side 2    Res =  0.4432E+01
 MRCHDU: Convergence failed at  89  side 2    Res =  0.4201E+01
 MRCHDU: Convergence failed at  91  side 2    Res =  0.4146E+01
 MRCHDU: Convergence failed at  92  side 2    Res =  0.2798E+01
 MRCHDU: Convergence failed at  93  side 2    Res =  0.2404E+01
 MRCHDU: Convergence failed at  94  side 2    Res =  0.2220E+01
 MRCHDU: Convergence failed at  95  side 2    Res =  0.2103E+01
 MRCHDU: Convergence failed at  96  side 2    Res =  0.1587E+01
 MRCHDU: Convergence failed at  97  side 2    Res =  0.1152E+01
 Side 1 forced transition at x/c =  1.0000   73
 Side 2  free  transition at x/c =  0.1077   35

   5   rms: 0.3429E+00   max: 0.1523E+01   C at   73  1   RLX: 0.985
       a = -9.000      CL = -0.5068
      Cm = -0.0323     CD =  0.09791   =>   CDf =  0.00488    CDp =  0.09302

 MRCHDU: Convergence failed at  87  side 2    Res =  0.9855E+00
 MRCHDU: Convergence failed at  88  side 2    Res =  0.1053E+01
 MRCHDU: Convergence failed at  89  side 2    Res =  0.1159E+01
 Side 1 forced transition at x/c =  1.0000   73
 Side 2  free  transition at x/c =  0.1013   35

   6   rms: 0.3405E+00   max: -.2184E+01   T at   35  2   RLX: 0.229
       a = -9.000      CL = -0.4849
      Cm = -0.0050     CD =  0.09323   =>   CDf =  0.00468    CDp =  0.08855

 Side 1 forced transition at x/c =  1.0000   74
 Side 2  free  transition at x/c =  0.1046   34

   7   rms: 0.1720E+00   max: -.1593E+01   T at   34  2   RLX: 0.314
       a = -9.000      CL = -0.4298
      Cm = -0.0122     CD =  0.09777   =>   CDf =  0.00482    CDp =  0.09294

 Side 1 forced transition at x/c =  1.0000   74
 Side 2  free  transition at x/c =  0.1059   34

   8   rms: 0.9396E-01   max: -.5741E+00   D at   34  2   RLX: 0.871
       a = -9.000      CL = -0.3154
      Cm = -0.0352     CD =  0.10513   =>   CDf =  0.00495    CDp =  0.10018

 Side 1 forced transition at x/c =  1.0000   74
 Side 2  free  transition at x/c =  0.1104   34

   9   rms: 0.1299E+00   max: 0.4490E+00   T at   35  2
       a = -9.000      CL = -0.3614
      Cm = -0.0449     CD =  0.10668   =>   CDf =  0.00511    CDp =  0.10157

 Side 1 forced transition at x/c =  1.0000   74
 Side 2  free  transition at x/c =  0.1260   35

  10   rms: 0.8052E+00   max: 0.4142E+01   T at   35  2   RLX: 0.211
       a = -9.000      CL = -0.4149
      Cm = -0.0379     CD =  0.08915   =>   CDf =  0.00557    CDp =  0.08359

 MRCHDU: Convergence failed at  73  side 2    Res =  0.2296E+01
 MRCHDU: Convergence failed at  74  side 2    Res =  0.1886E+01
 MRCHDU: Convergence failed at  75  side 2    Res =  0.1082E+01
 MRCHDU: Convergence failed at  76  side 2    Res =  0.1044E+01
 MRCHDU: Convergence failed at  77  side 2    Res =  0.1030E+01
 MRCHDU: Convergence failed at  78  side 2    Res =  0.1015E+01
 MRCHDU: Convergence failed at  79  side 2    Res =  0.1138E+01
 MRCHDU: Convergence failed at  80  side 2    Res =  0.1271E+01
 MRCHDU: Convergence failed at  81  side 2    Res =  0.1394E+01
 MRCHDU: Convergence failed at  82  side 2    Res =  0.1568E+01
 MRCHDU: Convergence failed at  83  side 2    Res =  0.1742E+01
 MRCHDU: Convergence failed at  84  side 2    Res =  0.1927E+01
 MRCHDU: Convergence failed at  85  side 2    Res =  0.2190E+01
 MRCHDU: Convergence failed at  86  side 2    Res =  0.2406E+01
 MRCHDU: Convergence failed at  87  side 2    Res =  0.2674E+01
 MRCHDU: Convergence failed at  88  side 2    Res =  0.2907E+01
 MRCHDU: Convergence failed at  89  side 2    Res =  0.3103E+01
 Side 1 forced transition at x/c =  1.0000   73
 Side 2  free  transition at x/c =  0.1059   35

  11   rms: 0.1767E+00   max: 0.8152E+00   D at   72  2
       a = -9.000      CL = -0.4812
      Cm = -0.0140     CD =  0.11304   =>   CDf =  0.00477    CDp =  0.10827

 Side 1 forced transition at x/c =  1.0000   73
 Side 2  free  transition at x/c =  0.1046   35

  12   rms: 0.1659E+00   max: -.1704E+01   T at   35  2   RLX: 0.293
       a = -9.000      CL = -0.4307
      Cm = -0.0141     CD =  0.09838   =>   CDf =  0.00466    CDp =  0.09372

 Side 1 forced transition at x/c =  1.0000   74
 Side 2  free  transition at x/c =  0.1092   34

  13   rms: 0.1121E+00   max: -.8834E+00   T at   34  2   RLX: 0.566
       a = -9.000      CL = -0.3926
      Cm = -0.0282     CD =  0.10506   =>   CDf =  0.00482    CDp =  0.10024

 Side 1 forced transition at x/c =  1.0000   74
 Side 2  free  transition at x/c =  0.1081   34

  14   rms: 0.7171E-01   max: -.4998E+00   D at   34  2
       a = -9.000      CL = -0.3418
      Cm = -0.0386     CD =  0.11060   =>   CDf =  0.00488    CDp =  0.10572

 Side 1 forced transition at x/c =  1.0000   74
 Side 2  free  transition at x/c =  0.1228   35

  15   rms: 0.1684E+00   max: 0.1758E+01   D at   35  2   RLX: 0.853
       a = -9.000      CL = -0.3102
      Cm = -0.0378     CD =  0.11783   =>   CDf =  0.00495    CDp =  0.11288

 Side 1 forced transition at x/c =  1.0000   74
 Side 2  free  transition at x/c =  0.1152   35

  16   rms: 0.5012E-01   max: -.3558E+00   T at   35  2
       a = -9.000      CL = -0.3234
      Cm = -0.0371     CD =  0.10574   =>   CDf =  0.00499    CDp =  0.10075

 Side 1 forced transition at x/c =  1.0000   74
 Side 2  free  transition at x/c =  0.1182   35

  17   rms: 0.1685E-01   max: -.1165E+00   D at   35  2
       a = -9.000      CL = -0.3222
      Cm = -0.0381     CD =  0.10372   =>   CDf =  0.00505    CDp =  0.09867

 Side 1 forced transition at x/c =  1.0000   74
 Side 2  free  transition at x/c =  0.1190   35

  18   rms: 0.6774E-02   max: 0.3528E-01   T at   35  2
       a = -9.000      CL = -0.3278
      Cm = -0.0378     CD =  0.10471   =>   CDf =  0.00505    CDp =  0.09966

 Side 1 forced transition at x/c =  1.0000   74
 Side 2  free  transition at x/c =  0.1186   35

  19   rms: 0.3913E-03   max: 0.3162E-02   C at   74  1
       a = -9.000      CL = -0.3278
      Cm = -0.0377     CD =  0.10486   =>   CDf =  0.00503    CDp =  0.09983

 Side 1 forced transition at x/c =  1.0000   74
 Side 2  free  transition at x/c =  0.1186   35

  20   rms: 0.1584E-04   max: 0.1134E-03   T at   35  2
       a = -9.000      CL = -0.3279
      Cm = -0.0377     CD =  0.10486   =>   CDf =  0.00503    CDp =  0.09983

 Point added to stored polar  1
 Point written to save file  out.txt                                         
 Point written to dump file log.txt                                         
 Calculating wake trajectory ...
 Calculating source influence matrix ...

 Solving BL system ...

 Side 1 forced transition at x/c =  1.0000   74
 Side 2  free  transition at x/c =  0.1186   35

   1   rms: 0.8347E-01   max: -.1114E+01   T at   35  2   RLX: 0.449
       a = -8.000      CL = -0.3295
      Cm = -0.0365     CD =  0.09953   =>   CDf =  0.00503    CDp =  0.09450

 Side 1 forced transition at x/c =  1.0000   74
 Side 2  free  transition at x/c =  0.1239   35

   2   rms: 0.1344E+00   max: -.7879E+00   T at   35  2   RLX: 0.635
       a = -8.000      CL = -0.3674
      Cm = -0.0360     CD =  0.09903   =>   CDf =  0.00495    CDp =  0.09408

 Side 1 forced transition at x/c =  1.0000   74
 Side 2  free  transition at x/c =  0.1222   35

   3   rms: 0.5839E-01   max: -.4751E+00   D at   35  2
       a = -8.000      CL = -0.3838
      Cm = -0.0306     CD =  0.10225   =>   CDf =  0.00478    CDp =  0.09747

 Side 1 forced transition at x/c =  1.0000   74
 Side 2  free  transition at x/c =  0.1259   35

   4   rms: 0.8966E-01   max: -.2680E+00   D at   36  2
       a = -8.000      CL = -0.4297
      Cm = -0.0342     CD =  0.09909   =>   CDf =  0.00466    CDp =  0.09442

 Side 1 forced transition at x/c =  1.0000   74
 Side 2  free  transition at x/c =  0.1265   36

   5   rms: 0.9631E-01   max: 0.4058E+00   T at   36  2
       a = -8.000      CL = -0.4620
      Cm = -0.0451     CD =  0.10145   =>   CDf =  0.00452    CDp =  0.09692

 Side 1 forced transition at x/c =  1.0000   73
 Side 2  free  transition at x/c =  0.1257   36

   6   rms: 0.6826E+00   max: 0.2080E+01   D at   63  2   RLX: 0.490
       a = -8.000      CL = -0.5043
      Cm = -0.0121     CD =  0.10853   =>   CDf =  0.00488    CDp =  0.10366

 Side 1 forced transition at x/c =  1.0000   74
 Side 2  free  transition at x/c =  0.1074   34

   7   rms: 0.1985E+00   max: -.1861E+01   T at   34  2   RLX: 0.269
       a = -8.000      CL = -0.4525
      Cm = -0.0045     CD =  0.09554   =>   CDf =  0.00438    CDp =  0.09116

 Side 1 forced transition at x/c =  1.0000   74
 Side 2  free  transition at x/c =  0.1066   34

   8   rms: 0.1515E+00   max: -.6250E+00   D at   34  2   RLX: 0.800
       a = -8.000      CL = -0.3138
      Cm = -0.0288     CD =  0.09856   =>   CDf =  0.00449    CDp =  0.09407

 Side 1 forced transition at x/c =  1.0000   75
 Side 2  free  transition at x/c =  0.1108   33

   9   rms: 0.2135E+00   max: 0.5581E+00   T at   34  2   RLX: 0.996
       a = -8.000      CL = -0.4220
      Cm = -0.0414     CD =  0.10067   =>   CDf =  0.00496    CDp =  0.09571

 MRCHDU: Convergence failed at  38  side 2    Res =  0.2564E+03
 MRCHDU: Convergence failed at  39  side 2    Res =  0.5819E+02
 MRCHDU: Convergence failed at  40  side 2    Res =  0.3632E+02
 MRCHDU: Convergence failed at  41  side 2    Res =  0.1109E+03
 MRCHDU: Convergence failed at  42  side 2    Res =  0.4478E+03
 MRCHDU: Convergence failed at  43  side 2    Res =  0.3382E+03
 MRCHDU: Convergence failed at  44  side 2    Res =  0.8544E+02
 MRCHDU: Convergence failed at  45  side 2    Res =  0.7108E+02
 MRCHDU: Convergence failed at  46  side 2    Res =  0.8683E+02
 MRCHDU: Convergence failed at  47  side 2    Res =  0.6448E+02
 MRCHDU: Convergence failed at  48  side 2    Res =  0.6219E+02
 MRCHDU: Convergence failed at  49  side 2    Res =  0.6093E+02
 MRCHDU: Convergence failed at  50  side 2    Res =  0.7100E+02
 MRCHDU: Convergence failed at  51  side 2    Res =  0.8446E+02
 MRCHDU: Convergence failed at  52  side 2    Res =  0.9548E+02
 MRCHDU: Convergence failed at  53  side 2    Res =  0.1180E+03
 MRCHDU: Convergence failed at  54  side 2    Res =  0.1321E+03
 MRCHDU: Convergence failed at  55  side 2    Res =  0.1498E+03
 MRCHDU: Convergence failed at  56  side 2    Res =  0.1659E+03
 MRCHDU: Convergence failed at  57  side 2    Res =  0.1824E+03
 MRCHDU: Convergence failed at  58  side 2    Res =  0.1962E+03
 MRCHDU: Convergence failed at  59  side 2    Res =  0.4494E+03
 MRCHDU: Convergence failed at  60  side 2    Res =  0.4358E+03
 MRCHDU: Convergence failed at  61  side 2    Res =  0.5115E+03
 MRCHDU: Convergence failed at  62  side 2    Res =  0.6030E+03
 MRCHDU: Convergence failed at  63  side 2    Res =  0.7100E+03
 MRCHDU: Convergence failed at  64  side 2    Res =  0.8267E+03
 MRCHDU: Convergence failed at  65  side 2    Res =  0.9738E+03
 MRCHDU: Convergence failed at  66  side 2    Res =  0.1176E+04
 MRCHDU: Convergence failed at  67  side 2    Res =  0.1405E+04
 MRCHDU: Convergence failed at  68  side 2    Res =  0.1746E+04
 MRCHDU: Convergence failed at  69  side 2    Res =  0.2162E+04
 MRCHDU: Convergence failed at  70  side 2    Res =  0.2872E+04
 MRCHDU: Convergence failed at  71  side 2    Res =  0.3346E+04
 MRCHDU: Convergence failed at  72  side 2    Res =  0.4500E+04
 MRCHDU: Convergence failed at  73  side 2    Res =  0.6927E+04
 MRCHDU: Convergence failed at  74  side 2    Res =  0.1720E+05
 MRCHDU: Convergence failed at  75  side 2    Res =  0.9385E+03
 MRCHDU: Convergence failed at  76  side 2    Res =  0.6245E+03
 MRCHDU: Convergence failed at  77  side 2    Res =  0.5991E+03
 MRCHDU: Convergence failed at  78  side 2    Res =  0.6120E+03
 MRCHDU: Convergence failed at  79  side 2    Res =  0.6236E+03
 MRCHDU: Convergence failed at  80  side 2    Res =  0.1240E+04
 MRCHDU: Convergence failed at  81  side 2    Res =  0.1076E+04
 MRCHDU: Convergence failed at  82  side 2    Res =  0.9755E+03
 MRCHDU: Convergence failed at  83  side 2    Res =  0.8992E+03
 MRCHDU: Convergence failed at  84  side 2    Res =  0.8218E+03
 MRCHDU: Convergence failed at  85  side 2    Res =  0.7501E+03
 MRCHDU: Convergence failed at  86  side 2    Res =  0.7152E+03
 MRCHDU: Convergence failed at  87  side 2    Res =  0.7089E+03
 MRCHDU: Convergence failed at  88  side 2    Res =  0.7161E+03
 Side 1 forced transition at x/c =  1.0000   74
 Side 2  free  transition at x/c =  0.1558   37

  10   rms: 0.1020E+01   max: 0.5698E+01   D at   91  2   RLX: 0.135
       a = -8.000      CL = -1.1083
      Cm =  0.2380     CD =  0.01338   =>   CDf =  0.00410    CDp =  0.00928

 MRCHDU: Convergence failed at  91  side 2    Res =  0.3942E+01
 MRCHDU: Convergence failed at  92  side 2    Res =  0.2124E+01
 MRCHDU: Convergence failed at  93  side 2    Res =  0.3516E+02
 MRCHDU: Convergence failed at  94  side 2    Res =  0.5767E+01
 Side 1 forced transition at x/c =  1.0000   74
 Side 2  free  transition at x/c =  0.1555   37

  11   rms: 0.8358E+00   max: -.8309E+01   C at   74  1   RLX: 0.060
       a = -8.000      CL = -0.9172
      Cm =  0.1647     CD =  0.10717   =>   CDf =  0.00498    CDp =  0.10219

 Side 1 forced transition at x/c =  1.0000   74
 Side 2  free  transition at x/c =  0.1544   37

  12   rms: 0.5951E+00   max: -.3807E+01   C at   74  1   RLX: 0.131
       a = -8.000      CL = -0.8529
      Cm =  0.1431     CD =  0.11047   =>   CDf =  0.00527    CDp =  0.10519

 Side 1 forced transition at x/c =  1.0000   74
 Side 2  free  transition at x/c =  0.1431   37

  13   rms: 0.5568E+00   max: 0.2094E+01   T at   37  2   RLX: 0.244
       a = -8.000      CL = -0.7025
      Cm =  0.0983     CD =  0.10146   =>   CDf =  0.00561    CDp =  0.09585

 Side 1 forced transition at x/c =  1.0000   75
 Side 2  free  transition at x/c =  0.1416   36

  14   rms: 0.5633E+00   max: -.2722E+01   T at    2  1   RLX: 0.184
       a = -8.000      CL = -0.6036
      Cm =  0.0723     CD =  0.12696   =>   CDf =  0.00588    CDp =  0.12108

 Side 1 forced transition at x/c =  1.0000   75
 Side 2  free  transition at x/c =  0.1425   36

  15   rms: 0.4848E+00   max: -.2074E+01   D at  109  2   RLX: 0.241
       a = -8.000      CL = -0.4786
      Cm =  0.0407     CD =  0.12073   =>   CDf =  0.00602    CDp =  0.11471

 Side 1 forced transition at x/c =  1.0000   75
 Side 2  free  transition at x/c =  0.1429   36

  16   rms: 0.4074E+00   max: -.1679E+01   D at  109  2   RLX: 0.298
       a = -8.000      CL = -0.3672
      Cm =  0.0134     CD =  0.12217   =>   CDf =  0.00612    CDp =  0.11604

 Side 1 forced transition at x/c =  1.0000   76
 Side 2  free  transition at x/c =  0.1431   35

  17   rms: 0.3510E+00   max: -.1186E+01   D at    2  1   RLX: 0.421
       a = -8.000      CL = -0.2455
      Cm = -0.0158     CD =  0.11590   =>   CDf =  0.00616    CDp =  0.10974

 Side 1 forced transition at x/c =  1.0000   76
 Side 2  free  transition at x/c =  0.1446   35

  18   rms: 0.2834E+00   max: -.8284E+00   D at   87  2   RLX: 0.604
       a = -8.000      CL = -0.1455
      Cm = -0.0406     CD =  0.10510   =>   CDf =  0.00606    CDp =  0.09904

 Side 1 forced transition at x/c =  1.0000   76
 Side 2  free  transition at x/c =  0.1480   35

  19   rms: 0.2102E+00   max: 0.7879E+00   C at   76  1   RLX: 0.649
       a = -8.000      CL = -0.1248
      Cm = -0.0521     CD =  0.09859   =>   CDf =  0.00575    CDp =  0.09285

 Side 1 forced transition at x/c =  1.0000   76
 Side 2  free  transition at x/c =  0.1490   35

  20   rms: 0.2139E+00   max: 0.1214E+01   T at   35  2   RLX: 0.574
       a = -8.000      CL = -0.1973
      Cm = -0.0528     CD =  0.10158   =>   CDf =  0.00537    CDp =  0.09621

 MRCHDU: Convergence failed at 109  side 2    Res =  0.1112E+01
 Side 1 forced transition at x/c =  1.0000   75
 Side 2  free  transition at x/c =  0.1417   36

  21   rms: 0.6158E+01   max: -.3058E+02   T at   36  2   RLX: 0.016
       a = -8.000      CL = -0.1757
      Cm = -0.0395     CD =  0.12325   =>   CDf =  0.00518    CDp =  0.11807

 Side 1 forced transition at x/c =  1.0000   76
 Side 2  free  transition at x/c =  0.1425   35

  22   rms: 0.3234E+00   max: 0.1633E+01   T at   35  2   RLX: 0.428
       a = -8.000      CL = -0.2546
      Cm = -0.0389     CD =  0.12000   =>   CDf =  0.00524    CDp =  0.11476

 MRCHDU: Convergence failed at 109  side 2    Res =  0.1275E+01
 Side 1 forced transition at x/c =  1.0000   75
 Side 2  free  transition at x/c =  0.1411   35

  23   rms: 0.1783E+00   max: -.1064E+01   D at  107  2   RLX: 0.470
       a = -8.000      CL = -0.2679
      Cm = -0.0457     CD =  0.11343   =>   CDf =  0.00542    CDp =  0.10801

 Side 1 forced transition at x/c =  1.0000   75
 Side 2  free  transition at x/c =  0.1376   35

  24   rms: 0.1202E+00   max: 0.1095E+01   C at   75  1   RLX: 0.810
       a = -8.000      CL = -0.2750
      Cm = -0.0437     CD =  0.09472   =>   CDf =  0.00534    CDp =  0.08939

 Side 1 forced transition at x/c =  1.0000   75
 Side 2  free  transition at x/c =  0.1368   35

  25   rms: 0.9939E-01   max: 0.9226E+00   C at   75  1
       a = -8.000      CL = -0.2886
      Cm = -0.0325     CD =  0.09253   =>   CDf =  0.00493    CDp =  0.08760

 Side 1 forced transition at x/c =  1.0000   75
 Side 2  free  transition at x/c =  0.1330   35

  26   rms: 0.5399E-01   max: 0.3319E+00   D at   67  1
       a = -8.000      CL = -0.3130
      Cm = -0.0285     CD =  0.09482   =>   CDf =  0.00454    CDp =  0.09028

 Side 1 forced transition at x/c =  1.0000   75
 Side 2  free  transition at x/c =  0.1304   35

  27   rms: 0.1553E-01   max: 0.7848E-01   D at   62  1
       a = -8.000      CL = -0.3213
      Cm = -0.0283     CD =  0.09530   =>   CDf =  0.00437    CDp =  0.09093

 Side 1 forced transition at x/c =  1.0000   75
 Side 2  free  transition at x/c =  0.1300   35

  28   rms: 0.3371E-02   max: 0.2186E-01   T at   35  2
       a = -8.000      CL = -0.3237
      Cm = -0.0281     CD =  0.09578   =>   CDf =  0.00432    CDp =  0.09146

 Side 1 forced transition at x/c =  1.0000   75
 Side 2  free  transition at x/c =  0.1298   35

  29   rms: 0.2300E-03   max: -.1145E-02   T at   35  2
       a = -8.000      CL = -0.3236
      Cm = -0.0281     CD =  0.09582   =>   CDf =  0.00431    CDp =  0.09152

 Side 1 forced transition at x/c =  1.0000   75
 Side 2  free  transition at x/c =  0.1298   35

  30   rms: 0.3353E-04   max: 0.1537E-03   T at   35  2
       a = -8.000      CL = -0.3236
      Cm = -0.0281     CD =  0.09582   =>   CDf =  0.00431    CDp =  0.09151

 Point added to stored polar  1
 Point written to save file  out.txt                                         
 Point written to dump file log.txt                                         
 Calculating wake trajectory ...
 Calculating source influence matrix ...

 Solving BL system ...

 Side 1 forced transition at x/c =  1.0000   75
 Side 2  free  transition at x/c =  0.1298   35

   1   rms: 0.1246E+00   max: -.1208E+01   T at   35  2   RLX: 0.414
       a = -7.000      CL = -0.3176
      Cm = -0.0238     CD =  0.09198   =>   CDf =  0.00431    CDp =  0.08767

 Side 1 forced transition at x/c =  1.0000   75
 Side 2  free  transition at x/c =  0.1358   35

   2   rms: 0.8216E-01   max: -.7516E+00   T at   35  2   RLX: 0.665
       a = -7.000      CL = -0.3451
      Cm = -0.0209     CD =  0.08933   =>   CDf =  0.00426    CDp =  0.08507

 Side 1 forced transition at x/c =  1.0000   75
 Side 2  free  transition at x/c =  0.1383   35

   3   rms: 0.6256E-01   max: -.3434E+00   D at   35  2
       a = -7.000      CL = -0.3789
      Cm = -0.0217     CD =  0.08812   =>   CDf =  0.00416    CDp =  0.08396

 Side 1 forced transition at x/c =  1.0000   75
 Side 2  free  transition at x/c =  0.1394   35

   4   rms: 0.2334E-01   max: -.2081E+00   D at   35  2
       a = -7.000      CL = -0.4008
      Cm = -0.0193     CD =  0.09051   =>   CDf =  0.00404    CDp =  0.08647

 Side 1 forced transition at x/c =  1.0000   74
 Side 2  free  transition at x/c =  0.1380   36

   5   rms: 0.5401E-01   max: -.8124E+00   D at    2  2   RLX: 0.615
       a = -7.000      CL = -0.3934
      Cm = -0.0191     CD =  0.08980   =>   CDf =  0.00395    CDp =  0.08585

 Side 1 forced transition at x/c =  1.0000   75
 Side 2  free  transition at x/c =  0.1389   35

   6   rms: 0.8824E-02   max: -.5841E-01   T at   35  2
       a = -7.000      CL = -0.3911
      Cm = -0.0194     CD =  0.09012   =>   CDf =  0.00397    CDp =  0.08615

 Side 1 forced transition at x/c =  1.0000   75
 Side 2  free  transition at x/c =  0.1396   35

   7   rms: 0.3462E-02   max: 0.1121E-01   D at    4  1
       a = -7.000      CL = -0.3922
      Cm = -0.0197     CD =  0.08967   =>   CDf =  0.00398    CDp =  0.08569

 Side 1 forced transition at x/c =  1.0000   75
 Side 2  free  transition at x/c =  0.1397   35

   8   rms: 0.1236E-02   max: 0.8779E-02   T at   35  2
       a = -7.000      CL = -0.3921
      Cm = -0.0195     CD =  0.08985   =>   CDf =  0.00398    CDp =  0.08587

 Side 1 forced transition at x/c =  1.0000   75
 Side 2  free  transition at x/c =  0.1396   35

   9   rms: 0.1721E-03   max: -.1172E-02   T at   35  2
       a = -7.000      CL = -0.3921
      Cm = -0.0196     CD =  0.08982   =>   CDf =  0.00398    CDp =  0.08585

 Side 1 forced transition at x/c =  1.0000   75
 Side 2  free  transition at x/c =  0.1396   35

  10   rms: 0.3385E-04   max: 0.2476E-03   T at   35  2
       a = -7.000      CL = -0.3921
      Cm = -0.0196     CD =  0.08983   =>   CDf =  0.00398    CDp =  0.08585

 Point added to stored polar  1
 Point written to save file  out.txt                                         
 Point written to dump file log.txt                                         
 Calculating wake trajectory ...
 Calculating source influence matrix ...

 Solving BL system ...

 Side 1 forced transition at x/c =  1.0000   75
 Side 2  free  transition at x/c =  0.1396   35

   1   rms: 0.1793E+00   max: 0.5198E+00   D at   60  1   RLX: 0.988
       a = -6.000      CL = -0.5321
      Cm = -0.0132     CD =  0.08059   =>   CDf =  0.00397    CDp =  0.07662

 Side 1  free  transition at x/c =  0.9690   72
 Side 2  free  transition at x/c =  0.1374   36

   2   rms: 0.1751E+00   max: 0.1375E+01   D at  110  2   RLX: 0.764
       a = -6.000      CL = -0.3757
      Cm = -0.0371     CD =  0.06462   =>   CDf =  0.00389    CDp =  0.06074

 MRCHDU: Convergence failed at 109  side 2    Res =  0.2662E+01
 Side 1  free  transition at x/c =  0.9676   72
 Side 2  free  transition at x/c =  0.1390   35

   3   rms: 0.1036E+00   max: 0.1594E+01   D at  109  2   RLX: 0.941
       a = -6.000      CL = -0.3307
      Cm = -0.0471     CD =  0.05420   =>   CDf =  0.00396    CDp =  0.05023

 MRCHDU: Convergence failed at  41  side 2    Res =  0.2159E+02
 MRCHDU: Convergence failed at  42  side 2    Res =  0.7983E+02
 MRCHDU: Convergence failed at  43  side 2    Res =  0.4140E+02
 MRCHDU: Convergence failed at  44  side 2    Res =  0.3123E+02
 MRCHDU: Convergence failed at  45  side 2    Res =  0.9255E+02
 MRCHDU: Convergence failed at  46  side 2    Res =  0.2544E+03
 MRCHDU: Convergence failed at  47  side 2    Res =  0.6571E+03
 MRCHDU: Convergence failed at  48  side 2    Res =  0.2759E+03
 MRCHDU: Convergence failed at  49  side 2    Res =  0.7499E+02
 MRCHDU: Convergence failed at  50  side 2    Res =  0.9649E+02
 MRCHDU: Convergence failed at  51  side 2    Res =  0.5916E+02
 MRCHDU: Convergence failed at  52  side 2    Res =  0.7388E+02
 MRCHDU: Convergence failed at  53  side 2    Res =  0.1023E+04
 MRCHDU: Convergence failed at  54  side 2    Res =  0.1353E+03
 MRCHDU: Convergence failed at  55  side 2    Res =  0.1696E+03
 MRCHDU: Convergence failed at  56  side 2    Res =  0.1149E+04
 MRCHDU: Convergence failed at  57  side 2    Res =  0.8003E+03
 MRCHDU: Convergence failed at  58  side 2    Res =  0.1483E+04
 MRCHDU: Convergence failed at  59  side 2    Res =  0.2217E+05
 MRCHDU: Convergence failed at  60  side 2    Res =  0.1996E+04
 MRCHDU: Convergence failed at  61  side 2    Res =  0.3380E+04
 MRCHDU: Convergence failed at  62  side 2    Res =  0.2561E+04
 MRCHDU: Convergence failed at  63  side 2    Res =  0.8224E+03
 MRCHDU: Convergence failed at  64  side 2    Res =  0.1600E+03
 MRCHDU: Convergence failed at  65  side 2    Res =  0.4917E+03
 MRCHDU: Convergence failed at  66  side 2    Res =  0.4475E+03
 MRCHDU: Convergence failed at  67  side 2    Res =  0.4149E+03
 MRCHDU: Convergence failed at  68  side 2    Res =  0.3903E+03
 MRCHDU: Convergence failed at  69  side 2    Res =  0.3727E+03
 MRCHDU: Convergence failed at  70  side 2    Res =  0.3601E+03
 MRCHDU: Convergence failed at  71  side 2    Res =  0.3510E+03
 MRCHDU: Convergence failed at  72  side 2    Res =  0.3459E+03
 MRCHDU: Convergence failed at  73  side 2    Res =  0.3467E+03
 MRCHDU: Convergence failed at  74  side 2    Res =  0.3496E+03
 MRCHDU: Convergence failed at  75  side 2    Res =  0.3537E+03
 MRCHDU: Convergence failed at  76  side 2    Res =  0.3589E+03
 MRCHDU: Convergence failed at  77  side 2    Res =  0.3652E+03
 MRCHDU: Convergence failed at  78  side 2    Res =  0.1742E+03
 MRCHDU: Convergence failed at  79  side 2    Res =  0.1770E+03
 MRCHDU: Convergence failed at  80  side 2    Res =  0.1802E+03
 MRCHDU: Convergence failed at  81  side 2    Res =  0.1838E+03
 MRCHDU: Convergence failed at  82  side 2    Res =  0.1882E+03
 MRCHDU: Convergence failed at  83  side 2    Res =  0.1584E+03
 MRCHDU: Convergence failed at  84  side 2    Res =  0.1676E+03
 MRCHDU: Convergence failed at  85  side 2    Res =  0.1811E+03
 MRCHDU: Convergence failed at  86  side 2    Res =  0.2831E+03
 MRCHDU: Convergence failed at  87  side 2    Res =  0.2861E+03
 Side 1  free  transition at x/c =  0.9516   71
 Side 2  free  transition at x/c =  0.2223   40

   4   rms: 0.9754E+00   max: -.9115E+01   T at   71  1   RLX: 0.055
       a = -6.000      CL = -0.9887
      Cm =  0.2235     CD =  0.00880   =>   CDf =  0.00333    CDp =  0.00547

 Side 1  free  transition at x/c =  0.9688   73
 Side 2  free  transition at x/c =  0.2218   40

   5   rms: 0.4025E+01   max: -.4404E+02   T at   41  2   RLX: 0.011
       a = -6.000      CL = -0.8759
      Cm =  0.1756     CD =  0.06286   =>   CDf =  0.00372    CDp =  0.05913

 Side 1  free  transition at x/c =  0.9742   73
 Side 2  free  transition at x/c =  0.2020   39

   6   rms: 0.1767E+01   max: 0.2098E+02   T at   39  2   RLX: 0.036
       a = -6.000      CL = -0.9022
      Cm =  0.1794     CD =  0.06801   =>   CDf =  0.00374    CDp =  0.06427

 Side 1  free  transition at x/c =  0.9937   75
 Side 2  free  transition at x/c =  0.1808   38

   7   rms: 0.1320E+01   max: 0.1613E+02   T at   38  2   RLX: 0.055
       a = -6.000      CL = -0.9481
      Cm =  0.1860     CD =  0.07558   =>   CDf =  0.00381    CDp =  0.07177

 Side 1 forced transition at x/c =  1.0000   75
 Side 2  free  transition at x/c =  0.1646   37

   8   rms: 0.1092E+01   max: -.5615E+01   T at   37  2   RLX: 0.089
       a = -6.000      CL = -0.8754
      Cm =  0.1698     CD =  0.06790   =>   CDf =  0.00388    CDp =  0.06403

 Side 1 forced transition at x/c =  1.0000   75
 Side 2  free  transition at x/c =  0.1633   37

   9   rms: 0.8036E+00   max: -.3019E+01   D at   74  1   RLX: 0.166
       a = -6.000      CL = -0.7284
      Cm =  0.1299     CD =  0.05572   =>   CDf =  0.00434    CDp =  0.05137

 Side 1 forced transition at x/c =  1.0000   75
 Side 2  free  transition at x/c =  0.1649   37

  10   rms: 0.5366E+00   max: -.1987E+01   T at  109  2   RLX: 0.252
       a = -6.000      CL = -0.5389
      Cm =  0.0771     CD =  0.04420   =>   CDf =  0.00504    CDp =  0.03916

 Side 1 forced transition at x/c =  1.0000   76
 Side 2  free  transition at x/c =  0.1667   36

  11   rms: 0.4323E+00   max: -.1435E+01   T at  108  2   RLX: 0.348
       a = -6.000      CL = -0.3444
      Cm =  0.0280     CD =  0.03309   =>   CDf =  0.00542    CDp =  0.02767

 Side 1 forced transition at x/c =  1.0000   77
 Side 2  free  transition at x/c =  0.1690   35

  12   rms: 0.3550E+00   max: -.1828E+01   T at    2  1   RLX: 0.274
       a = -6.000      CL = -0.2537
      Cm =  0.0023     CD =  0.04668   =>   CDf =  0.00552    CDp =  0.04116

 Side 1 forced transition at x/c =  1.0000   77
 Side 2  free  transition at x/c =  0.1706   35

  13   rms: 0.2985E+00   max: -.9759E+00   T at  107  2   RLX: 0.512
       a = -6.000      CL = -0.1594
      Cm = -0.0275     CD =  0.02735   =>   CDf =  0.00551    CDp =  0.02184

 Side 1 forced transition at x/c =  1.0000   77
 Side 2  free  transition at x/c =  0.1727   35

  14   rms: 0.3379E+00   max: -.1363E+01   D at  104  2   RLX: 0.367
       a = -6.000      CL = -0.1659
      Cm = -0.0468     CD =  0.04150   =>   CDf =  0.00545    CDp =  0.03606

 MRCHDU: Convergence failed at 107  side 2    Res =  0.5383E+01
 Side 1 forced transition at x/c =  1.0000   76
 Side 2  free  transition at x/c =  0.1732   36

  15   rms: 0.5495E+00   max: 0.6562E+01   T at    2  2   RLX: 0.176
       a = -6.000      CL = -0.1872
      Cm = -0.0563     CD =  0.07086   =>   CDf =  0.00562    CDp =  0.06524

 Side 1 forced transition at x/c =  1.0000   76
 Side 2  free  transition at x/c =  0.1971   38

  16   rms: 0.3093E+00   max: 0.1762E+01   D at   38  2   RLX: 0.364
       a = -6.000      CL = -0.1916
      Cm = -0.0742     CD =  0.05532   =>   CDf =  0.00565    CDp =  0.04967

 Side 1 forced transition at x/c =  1.0000   76
 Side 2  free  transition at x/c =  0.1878   37

  17   rms: 0.2337E+00   max: -.1024E+01   D at  106  2   RLX: 0.488
       a = -6.000      CL = -0.2210
      Cm = -0.0642     CD =  0.05473   =>   CDf =  0.00533    CDp =  0.04939

 Side 1 forced transition at x/c =  1.0000   76
 Side 2  free  transition at x/c =  0.1884   37

  18   rms: 0.2154E+00   max: 0.1155E+01   C at   76  1   RLX: 0.670
       a = -6.000      CL = -0.2746
      Cm = -0.0390     CD =  0.07239   =>   CDf =  0.00502    CDp =  0.06737

 Side 1 forced transition at x/c =  1.0000   76
 Side 2  free  transition at x/c =  0.1635   36

  19   rms: 0.1864E+00   max: 0.1144E+01   T at   36  2   RLX: 0.797
       a = -6.000      CL = -0.3690
      Cm = -0.0178     CD =  0.08048   =>   CDf =  0.00458    CDp =  0.07590

 Side 1 forced transition at x/c =  1.0000   75
 Side 2  free  transition at x/c =  0.1552   36

  20   rms: 0.1238E+00   max: 0.5228E+00   D at   60  1   RLX: 0.994
       a = -6.000      CL = -0.4459
      Cm = -0.0111     CD =  0.08506   =>   CDf =  0.00415    CDp =  0.08091

 Side 1  free  transition at x/c =  0.9853   74
 Side 2  free  transition at x/c =  0.1445   36

  21   rms: 0.1632E+00   max: -.1428E+01   T at   36  2   RLX: 0.350
       a = -6.000      CL = -0.4179
      Cm = -0.0086     CD =  0.08334   =>   CDf =  0.00384    CDp =  0.07950

 Side 1  free  transition at x/c =  0.9860   74
 Side 2  free  transition at x/c =  0.1464   36

  22   rms: 0.8415E-01   max: -.6775E+00   T at   36  2   RLX: 0.738
       a = -6.000      CL = -0.3682
      Cm = -0.0171     CD =  0.07917   =>   CDf =  0.00388    CDp =  0.07529

 Side 1  free  transition at x/c =  0.9872   74
 Side 2  free  transition at x/c =  0.1507   36

  23   rms: 0.6421E-01   max: -.5196E+00   D at   36  2   RLX: 0.962
       a = -6.000      CL = -0.3596
      Cm = -0.0274     CD =  0.07543   =>   CDf =  0.00395    CDp =  0.07148

 Side 1  free  transition at x/c =  0.9849   74
 Side 2  free  transition at x/c =  0.1568   36

  24   rms: 0.3188E+00   max: 0.8884E+00   T at   37  2   RLX: 0.746
       a = -6.000      CL = -0.4200
      Cm = -0.0604     CD =  0.07281   =>   CDf =  0.00398    CDp =  0.06883

 Side 1  free  transition at x/c =  0.9755   72
 Side 2  free  transition at x/c =  0.1543   37

  25   rms: 0.4300E+00   max: 0.1616E+01   D at   48  2   RLX: 0.349
       a = -6.000      CL = -0.4212
      Cm = -0.0534     CD =  0.05483   =>   CDf =  0.00506    CDp =  0.04977

 Side 1  free  transition at x/c =  0.9892   73
 Side 2  free  transition at x/c =  0.1554   37

  26   rms: 0.2307E+00   max: 0.8706E+00   D at   47  2
       a = -6.000      CL = -0.4441
      Cm = -0.0332     CD =  0.08402   =>   CDf =  0.00472    CDp =  0.07931

 Side 1 forced transition at x/c =  1.0000   74
 Side 2  free  transition at x/c =  0.1534   37

  27   rms: 0.2282E+00   max: 0.1233E+01   T at   37  2
       a = -6.000      CL = -0.4936
      Cm = -0.0230     CD =  0.08195   =>   CDf =  0.00479    CDp =  0.07717

 MRCHDU: Convergence failed at  63  side 2    Res =  0.9960E+00
 MRCHDU: Convergence failed at  64  side 2    Res =  0.1743E+01
 MRCHDU: Convergence failed at  65  side 2    Res =  0.3119E+01
 MRCHDU: Convergence failed at  66  side 2    Res =  0.7348E+01
 MRCHDU: Convergence failed at  67  side 2    Res =  0.1777E+02
 MRCHDU: Convergence failed at  68  side 2    Res =  0.6825E+01
 MRCHDU: Convergence failed at  69  side 2    Res =  0.4715E+01
 MRCHDU: Convergence failed at  70  side 2    Res =  0.3863E+01
 MRCHDU: Convergence failed at  71  side 2    Res =  0.3385E+01
 MRCHDU: Convergence failed at  72  side 2    Res =  0.3047E+01
 MRCHDU: Convergence failed at  73  side 2    Res =  0.2871E+01
 MRCHDU: Convergence failed at  74  side 2    Res =  0.2737E+01
 MRCHDU: Convergence failed at  75  side 2    Res =  0.2651E+01
 MRCHDU: Convergence failed at  76  side 2    Res =  0.2579E+01
 MRCHDU: Convergence failed at  77  side 2    Res =  0.2514E+01
 MRCHDU: Convergence failed at  78  side 2    Res =  0.2466E+01
 MRCHDU: Convergence failed at  79  side 2    Res =  0.2429E+01
 MRCHDU: Convergence failed at  80  side 2    Res =  0.2398E+01
 MRCHDU: Convergence failed at  81  side 2    Res =  0.2373E+01
 MRCHDU: Convergence failed at  82  side 2    Res =  0.2357E+01
 MRCHDU: Convergence failed at  83  side 2    Res =  0.2344E+01
 MRCHDU: Convergence failed at  84  side 2    Res =  0.2252E+01
 MRCHDU: Convergence failed at  85  side 2    Res =  0.2250E+01
 MRCHDU: Convergence failed at  86  side 2    Res =  0.2261E+01
 MRCHDU: Convergence failed at  87  side 2    Res =  0.2273E+01
 MRCHDU: Convergence failed at  88  side 2    Res =  0.2386E+01
 Side 1  free  transition at x/c =  0.9965   74
 Side 2  free  transition at x/c =  0.1364   36

  28   rms: 0.1534E+00   max: 0.5842E+00   D at   99  2
       a = -6.000      CL = -0.4731
      Cm = -0.0116     CD =  0.08392   =>   CDf =  0.00399    CDp =  0.07993

 Side 1 forced transition at x/c =  1.0000   75
 Side 2  free  transition at x/c =  0.1398   35

  29   rms: 0.1663E+00   max: -.4649E+00   T at   35  2
       a = -6.000      CL = -0.4537
      Cm = -0.0453     CD =  0.07251   =>   CDf =  0.00417    CDp =  0.06834

 Side 1  free  transition at x/c =  0.9985   74
 Side 2  free  transition at x/c =  0.1407   36

  30   rms: 0.1637E+00   max: 0.5901E+00   D at   52  2
       a = -6.000      CL = -0.4593
      Cm = -0.0419     CD =  0.07674   =>   CDf =  0.00508    CDp =  0.07166

 MRCHDU: Convergence failed at  40  side 2    Res =  0.2912E+02
 MRCHDU: Convergence failed at  41  side 2    Res =  0.4344E+02
 MRCHDU: Convergence failed at  42  side 2    Res =  0.7158E+02
 MRCHDU: Convergence failed at  43  side 2    Res =  0.1275E+03
 MRCHDU: Convergence failed at  44  side 2    Res =  0.7195E+02
 MRCHDU: Convergence failed at  45  side 2    Res =  0.4597E+02
 MRCHDU: Convergence failed at  46  side 2    Res =  0.1080E+03
 MRCHDU: Convergence failed at  47  side 2    Res =  0.1614E+03
 MRCHDU: Convergence failed at  48  side 2    Res =  0.2347E+04
 MRCHDU: Convergence failed at  49  side 2    Res =  0.4067E+04
 MRCHDU: Convergence failed at  50  side 2    Res =  0.2456E+03
 MRCHDU: Convergence failed at  51  side 2    Res =  0.2535E+03
 MRCHDU: Convergence failed at  52  side 2    Res =  0.2720E+03
 MRCHDU: Convergence failed at  53  side 2    Res =  0.1112E+03
 MRCHDU: Convergence failed at  54  side 2    Res =  0.1354E+03
 MRCHDU: Convergence failed at  55  side 2    Res =  0.1326E+03
 MRCHDU: Convergence failed at  56  side 2    Res =  0.1325E+03
 MRCHDU: Convergence failed at  57  side 2    Res =  0.1346E+03
 MRCHDU: Convergence failed at  58  side 2    Res =  0.1396E+03
 MRCHDU: Convergence failed at  59  side 2    Res =  0.1453E+03
 MRCHDU: Convergence failed at  60  side 2    Res =  0.9425E+02
 MRCHDU: Convergence failed at  61  side 2    Res =  0.9334E+02
 MRCHDU: Convergence failed at  62  side 2    Res =  0.9263E+02
 MRCHDU: Convergence failed at  63  side 2    Res =  0.9194E+02
 MRCHDU: Convergence failed at  64  side 2    Res =  0.9126E+02
 MRCHDU: Convergence failed at  65  side 2    Res =  0.9261E+02
 MRCHDU: Convergence failed at  66  side 2    Res =  0.1167E+03
 MRCHDU: Convergence failed at  67  side 2    Res =  0.1218E+03
 MRCHDU: Convergence failed at  68  side 2    Res =  0.1162E+03
 MRCHDU: Convergence failed at  69  side 2    Res =  0.1575E+03
 MRCHDU: Convergence failed at  70  side 2    Res =  0.1827E+03
 MRCHDU: Convergence failed at  71  side 2    Res =  0.1894E+03
 MRCHDU: Convergence failed at  72  side 2    Res =  0.1905E+03
 MRCHDU: Convergence failed at  73  side 2    Res =  0.1603E+03
 MRCHDU: Convergence failed at  74  side 2    Res =  0.1679E+03
 MRCHDU: Convergence failed at  75  side 2    Res =  0.1757E+03
 MRCHDU: Convergence failed at  76  side 2    Res =  0.1833E+03
 MRCHDU: Convergence failed at  77  side 2    Res =  0.1903E+03
 MRCHDU: Convergence failed at  78  side 2    Res =  0.1967E+03
 MRCHDU: Convergence failed at  79  side 2    Res =  0.2021E+03
 MRCHDU: Convergence failed at  80  side 2    Res =  0.2065E+03
 MRCHDU: Convergence failed at  81  side 2    Res =  0.2107E+03
 MRCHDU: Convergence failed at  82  side 2    Res =  0.2403E+03
 MRCHDU: Convergence failed at  83  side 2    Res =  0.3837E+03
 MRCHDU: Convergence failed at  84  side 2    Res =  0.6382E+03
 MRCHDU: Convergence failed at  85  side 2    Res =  0.5710E+03
 MRCHDU: Convergence failed at  86  side 2    Res =  0.4903E+03
 MRCHDU: Convergence failed at  87  side 2    Res =  0.4171E+03
 MRCHDU: Convergence failed at  88  side 2    Res =  0.2728E+03
 Side 1  free  transition at x/c =  0.9947   74
 Side 2  free  transition at x/c =  0.1881   39

  31   rms: 0.8845E+00   max: 0.1080E+02   T at   39  2   RLX: 0.059
       a = -6.000      CL = -1.3864
      Cm =  0.3160     CD =  0.01139   =>   CDf =  0.00348    CDp =  0.00791

 MRCHDU: Convergence failed at  91  side 2    Res =  0.1821E+01
 MRCHDU: Convergence failed at  92  side 2    Res =  0.2614E+01
 Side 1 forced transition at x/c =  1.0000   74
 Side 2  free  transition at x/c =  0.1654   38

  32   rms: 0.1231E+01   max: -.6583E+01   T at   38  2   RLX: 0.076
       a = -6.000      CL = -1.1217
      Cm =  0.2273     CD =  0.08791   =>   CDf =  0.00387    CDp =  0.08404

 Side 1 forced transition at x/c =  1.0000   74
 Side 2  free  transition at x/c =  0.1645   38

  33   rms: 0.9337E+00   max: -.3908E+01   D at   66  1   RLX: 0.128
       a = -6.000      CL = -0.9713
      Cm =  0.1866     CD =  0.09083   =>   CDf =  0.00436    CDp =  0.08647

 Side 1 forced transition at x/c =  1.0000   75
 Side 2  free  transition at x/c =  0.1649   37

  34   rms: 0.6307E+00   max: -.2313E+01   D at   74  1   RLX: 0.216
       a = -6.000      CL = -0.7629
      Cm =  0.1258     CD =  0.08931   =>   CDf =  0.00503    CDp =  0.08428

 Side 1 forced transition at x/c =  1.0000   75
 Side 2  free  transition at x/c =  0.1664   37

  35   rms: 0.4643E+00   max: -.1375E+01   T at  109  2   RLX: 0.364
       a = -6.000      CL = -0.5006
      Cm =  0.0553     CD =  0.08367   =>   CDf =  0.00573    CDp =  0.07794

 Side 1 forced transition at x/c =  1.0000   76
 Side 2  free  transition at x/c =  0.1687   36

  36   rms: 0.3935E+00   max: -.1342E+01   T at  108  2   RLX: 0.372
       a = -6.000      CL = -0.3210
      Cm =  0.0084     CD =  0.09311   =>   CDf =  0.00599    CDp =  0.08713

 Side 1 forced transition at x/c =  1.0000   76
 Side 2  free  transition at x/c =  0.1708   36

  37   rms: 0.3154E+00   max: -.1039E+01   D at  106  2   RLX: 0.481
       a = -6.000      CL = -0.2076
      Cm = -0.0260     CD =  0.09902   =>   CDf =  0.00595    CDp =  0.09307

 MRCHDU: Convergence failed at 104  side 2    Res =  0.3683E+01
 Side 1 forced transition at x/c =  1.0000   77
 Side 2  free  transition at x/c =  0.1727   35

  38   rms: 0.3185E+00   max: -.3132E+00   U at  107  2   RLX: 0.628
       a = -6.000      CL = -0.1383
      Cm = -0.0503     CD =  0.07571   =>   CDf =  0.00583    CDp =  0.06988

 MRCHDU: Convergence failed at 107  side 2    Res =  0.7937E+01
 Side 1 forced transition at x/c =  1.0000   77
 Side 2  free  transition at x/c =  0.2449   40

  39   rms: 0.9895E+00   max: 0.6402E+01   T at   40  2   RLX: 0.148
       a = -6.000      CL = -0.1579
      Cm = -0.0962     CD =  0.08558   =>   CDf =  0.00512    CDp =  0.08046

 Side 1 forced transition at x/c =  1.0000   76
 Side 2  free  transition at x/c =  0.2214   39

  40   rms: 0.3275E+01   max: -.1633E+02   T at   40  2   RLX: 0.031
       a = -6.000      CL = -0.1749
      Cm = -0.0629     CD =  0.09793   =>   CDf =  0.00527    CDp =  0.09265

 Side 1 forced transition at x/c =  1.0000   76
 Side 2  free  transition at x/c =  0.2058   38

  41   rms: 0.5339E+00   max: -.5798E+01   T at   40  2   RLX: 0.086
       a = -6.000      CL = -0.2021
      Cm = -0.0429     CD =  0.10922   =>   CDf =  0.00535    CDp =  0.10387

 Side 1 forced transition at x/c =  1.0000   76
 Side 2  free  transition at x/c =  0.1954   38

  42   rms: 0.3375E+00   max: 0.3593E+01   T at   38  2   RLX: 0.352
       a = -6.000      CL = -0.2480
      Cm = -0.0399     CD =  0.09546   =>   CDf =  0.00537    CDp =  0.09009

 MRCHDU: Convergence failed at 108  side 2    Res =  0.8802E+00
 Side 1 forced transition at x/c =  1.0000   76
 Side 2  free  transition at x/c =  0.1877   37

  43   rms: 0.2350E+00   max: -.1456E+01   D at  105  2   RLX: 0.343
       a = -6.000      CL = -0.2834
      Cm = -0.0348     CD =  0.09773   =>   CDf =  0.00533    CDp =  0.09240

 Side 1 forced transition at x/c =  1.0000   76
 Side 2  free  transition at x/c =  0.1752   37

  44   rms: 0.2412E+00   max: 0.1420E+01   C at   76  1   RLX: 0.436
       a = -6.000      CL = -0.3067
      Cm = -0.0338     CD =  0.09192   =>   CDf =  0.00526    CDp =  0.08666

 Side 1 forced transition at x/c =  1.0000   76
 Side 2  free  transition at x/c =  0.1728   36

  45   rms: 0.2036E+00   max: 0.1184E+01   C at   76  1   RLX: 0.571
       a = -6.000      CL = -0.3073
      Cm = -0.0307     CD =  0.08254   =>   CDf =  0.00501    CDp =  0.07753

 Side 1 forced transition at x/c =  1.0000   76
 Side 2  free  transition at x/c =  0.1651   36

  46   rms: 0.2110E+00   max: 0.1612E+01   T at   36  2   RLX: 0.723
       a = -6.000      CL = -0.3839
      Cm = -0.0198     CD =  0.07941   =>   CDf =  0.00468    CDp =  0.07472

 MRCHDU: Convergence failed at 109  side 2    Res =  0.1701E+01
 Side 1 forced transition at x/c =  1.0000   75
 Side 2  free  transition at x/c =  0.1559   36

  47   rms: 0.1339E+00   max: -.7307E+00   D at  107  2   RLX: 0.684
       a = -6.000      CL = -0.4418
      Cm = -0.0132     CD =  0.08822   =>   CDf =  0.00424    CDp =  0.08398

 Side 1 forced transition at x/c =  1.0000   75
 Side 2  free  transition at x/c =  0.1484   36

  48   rms: 0.1177E+00   max: 0.8185E+00   D at  109  2
       a = -6.000      CL = -0.4147
      Cm = -0.0111     CD =  0.07765   =>   CDf =  0.00405    CDp =  0.07361

 MRCHDU: Convergence failed at 109  side 2    Res =  0.1489E+01
 Side 1  free  transition at x/c =  0.9627   72
 Side 2  free  transition at x/c =  0.1500   36

  49   rms: 0.1111E+00   max: -.1342E+01   T at   36  2   RLX: 0.373
       a = -6.000      CL = -0.3731
      Cm = -0.0207     CD =  0.08188   =>   CDf =  0.00372    CDp =  0.07816

 Side 1  free  transition at x/c =  0.9638   72
 Side 2  free  transition at x/c =  0.1539   36

  50   rms: 0.1283E+00   max: -.9810E+00   T at   72  1   RLX: 0.510
       a = -6.000      CL = -0.3949
      Cm = -0.0237     CD =  0.08100   =>   CDf =  0.00378    CDp =  0.07723

 Side 1  free  transition at x/c =  0.9810   73
 Side 2  free  transition at x/c =  0.1557   36

  51   rms: 0.1837E+00   max: -.6374E+00   T at   36  2   RLX: 0.784
       a = -6.000      CL = -0.4054
      Cm = -0.0478     CD =  0.07185   =>   CDf =  0.00392    CDp =  0.06794

 Side 1  free  transition at x/c =  0.9774   72
 Side 2  free  transition at x/c =  0.1530   37

  52   rms: 0.1346E+01   max: -.1871E+02   D at  110  2   RLX: 0.027
       a = -6.000      CL = -0.4259
      Cm = -0.0442     CD =  0.05938   =>   CDf =  0.00430    CDp =  0.05508

 Side 1  free  transition at x/c =  0.9837   73
 Side 2  free  transition at x/c =  0.1527   37

  53   rms: 0.2284E+00   max: 0.2343E+00   U at  110  2   RLX: 0.534
       a = -6.000      CL = -0.4451
      Cm = -0.0321     CD =  0.06947   =>   CDf =  0.00434    CDp =  0.06513

 Side 1  free  transition at x/c =  0.9937   75
 Side 2  free  transition at x/c =  0.1503   36

  54   rms: 0.1050E+00   max: -.4148E+00   D at   36  2
       a = -6.000      CL = -0.4732
      Cm = -0.0200     CD =  0.08262   =>   CDf =  0.00428    CDp =  0.07834

 Side 1 forced transition at x/c =  1.0000   75
 Side 2  free  transition at x/c =  0.1418   36

  55   rms: 0.6703E+00   max: 0.3120E+01   T at   36  2   RLX: 0.481
       a = -6.000      CL = -0.6427
      Cm = -0.0320     CD =  0.10003   =>   CDf =  0.00406    CDp =  0.09596

 Side 1  free  transition at x/c =  0.9622   70
 Side 2  free  transition at x/c =  0.1559   38

  56   rms: 0.6750E+00   max: 0.2435E+01   D at   39  2   RLX: 0.398
       a = -6.000      CL = -0.5563
      Cm = -0.0397     CD =  0.05595   =>   CDf =  0.00602    CDp =  0.04993

 Side 1  free  transition at x/c =  0.9793   71
 Side 2  free  transition at x/c =  0.1544   38

  57   rms: 0.3973E+00   max: 0.1423E+01   D at   44  2   RLX: 0.410
       a = -6.000      CL = -0.4972
      Cm = -0.0374     CD =  0.06729   =>   CDf =  0.00477    CDp =  0.06252

 Side 1  free  transition at x/c =  0.9915   73
 Side 2  free  transition at x/c =  0.1559   37

  58   rms: 0.2159E+00   max: 0.7299E+00   D at   43  2
       a = -6.000      CL = -0.4485
      Cm = -0.0314     CD =  0.08282   =>   CDf =  0.00471    CDp =  0.07811

 Side 1 forced transition at x/c =  1.0000   75
 Side 2  free  transition at x/c =  0.1486   36

  59   rms: 0.1019E+00   max: 0.4233E+00   T at   36  2
       a = -6.000      CL = -0.4754
      Cm = -0.0215     CD =  0.08268   =>   CDf =  0.00440    CDp =  0.07828

 Side 1  free  transition at x/c =  0.9986   74
 Side 2  free  transition at x/c =  0.1438   37

  60   rms: 0.3861E-01   max: -.2327E+00   T at   37  2
       a = -6.000      CL = -0.4714
      Cm = -0.0182     CD =  0.08082   =>   CDf =  0.00408    CDp =  0.07674

 Side 1 forced transition at x/c =  1.0000   75
 Side 2  free  transition at x/c =  0.1455   36

  61   rms: 0.2695E-01   max: -.2198E+00   T at    2  1
       a = -6.000      CL = -0.4604
      Cm = -0.0210     CD =  0.07940   =>   CDf =  0.00409    CDp =  0.07530

 Side 1 forced transition at x/c =  1.0000   75
 Side 2  free  transition at x/c =  0.1472   36

  62   rms: 0.9917E-02   max: -.3492E-01   D at   36  2
       a = -6.000      CL = -0.4624
      Cm = -0.0216     CD =  0.07958   =>   CDf =  0.00413    CDp =  0.07545

 Side 1 forced transition at x/c =  1.0000   75
 Side 2  free  transition at x/c =  0.1473   36

  63   rms: 0.1850E-02   max: 0.1080E-01   T at   36  2
       a = -6.000      CL = -0.4635
      Cm = -0.0217     CD =  0.07983   =>   CDf =  0.00414    CDp =  0.07570

 Side 1 forced transition at x/c =  1.0000   75
 Side 2  free  transition at x/c =  0.1472   36

  64   rms: 0.7499E-04   max: 0.6064E-03   T at   36  2
       a = -6.000      CL = -0.4635
      Cm = -0.0217     CD =  0.07986   =>   CDf =  0.00413    CDp =  0.07573

 Point added to stored polar  1
 Point written to save file  out.txt                                         
 Point written to dump file log.txt                                         
 Calculating wake trajectory ...
 Calculating source influence matrix ...

 Solving BL system ...

 Side 1 forced transition at x/c =  1.0000   75
 Side 2  free  transition at x/c =  0.1471   36

   1   rms: 0.1213E+00   max: -.1479E+01   T at   36  2   RLX: 0.338
       a = -5.000      CL = -0.4614
      Cm = -0.0190     CD =  0.07704   =>   CDf =  0.00413    CDp =  0.07292

 Side 1  free  transition at x/c =  0.9848   74
 Side 2  free  transition at x/c =  0.1530   36

   2   rms: 0.4513E+00   max: -.5561E+01   T at   36  2   RLX: 0.090
       a = -5.000      CL = -0.4658
      Cm = -0.0212     CD =  0.08343   =>   CDf =  0.00407    CDp =  0.07936

 Side 1  free  transition at x/c =  0.9818   74
 Side 2  free  transition at x/c =  0.1509   36

   3   rms: 0.1498E+00   max: -.9750E+00   T at   36  2   RLX: 0.513
       a = -5.000      CL = -0.4164
      Cm = -0.0351     CD =  0.07106   =>   CDf =  0.00413    CDp =  0.06693

 Side 1  free  transition at x/c =  0.9770   73
 Side 2  free  transition at x/c =  0.1512   36

   4   rms: 0.1035E+00   max: -.6637E+00   D at   36  2   RLX: 0.753
       a = -5.000      CL = -0.3710
      Cm = -0.0468     CD =  0.06317   =>   CDf =  0.00433    CDp =  0.05884

 Side 1  free  transition at x/c =  0.9686   73
 Side 2  free  transition at x/c =  0.2247   41

   5   rms: 0.7424E+00   max: 0.3740E+01   T at   41  2   RLX: 0.401
       a = -5.000      CL = -0.3233
      Cm = -0.0507     CD =  0.06349   =>   CDf =  0.00588    CDp =  0.05761

 Side 1  free  transition at x/c =  0.9647   73
 Side 2  free  transition at x/c =  0.2006   38

   6   rms: 0.2784E+00   max: 0.1392E+01   D at   40  2   RLX: 0.783
       a = -5.000      CL = -0.3148
      Cm = -0.0584     CD =  0.05809   =>   CDf =  0.00567    CDp =  0.05242

 Side 1  free  transition at x/c =  0.9739   74
 Side 2  free  transition at x/c =  0.1894   37

   7   rms: 0.1761E+00   max: -.1088E+01   T at   38  2   RLX: 0.459
       a = -5.000      CL = -0.3400
      Cm = -0.0390     CD =  0.06924   =>   CDf =  0.00452    CDp =  0.06472

 Side 1  free  transition at x/c =  0.9767   74
 Side 2  free  transition at x/c =  0.1769   37

   8   rms: 0.1022E+00   max: -.6512E+00   D at   38  2   RLX: 0.768
       a = -5.000      CL = -0.3523
      Cm = -0.0363     CD =  0.06992   =>   CDf =  0.00424    CDp =  0.06569

 Side 1  free  transition at x/c =  0.9733   74
 Side 2  free  transition at x/c =  0.1777   37

[...]

 Side 1  free  transition at x/c =  0.0552   35
 Side 2 forced transition at x/c =  1.0000   64

 168   rms: 0.1097E+00   max: 0.2345E+00   D at   81  2
       a = 26.000      CL =  0.7873
      Cm = -0.1011     CD =  0.31301   =>   CDf =  0.00420    CDp =  0.30882

 Side 1  free  transition at x/c =  0.0559   35
 Side 2 forced transition at x/c =  1.0000   64

 169   rms: 0.4271E-01   max: -.1406E+00   D at   36  1
       a = 26.000      CL =  0.7892
      Cm = -0.0982     CD =  0.28872   =>   CDf =  0.00414    CDp =  0.28458

 Side 1  free  transition at x/c =  0.0600   36
 Side 2 forced transition at x/c =  1.0000   64

 170   rms: 0.2991E+00   max: 0.2231E+01   D at   36  1   RLX: 0.672
       a = 26.000      CL =  0.7436
      Cm = -0.0957     CD =  0.32922   =>   CDf =  0.00408    CDp =  0.32514

 Side 1  free  transition at x/c =  0.0552   35
 Side 2 forced transition at x/c =  1.0000   64

 171   rms: 0.1096E+00   max: 0.2349E+00   D at   81  2
       a = 26.000      CL =  0.7872
      Cm = -0.1011     CD =  0.31291   =>   CDf =  0.00420    CDp =  0.30871

 Side 1  free  transition at x/c =  0.0559   35
 Side 2 forced transition at x/c =  1.0000   64

 172   rms: 0.4289E-01   max: -.1411E+00   D at   36  1
       a = 26.000      CL =  0.7891
      Cm = -0.0982     CD =  0.28860   =>   CDf =  0.00414    CDp =  0.28446

 Side 1  free  transition at x/c =  0.0600   36
 Side 2 forced transition at x/c =  1.0000   64

 173   rms: 0.2999E+00   max: 0.2237E+01   D at   36  1   RLX: 0.671
       a = 26.000      CL =  0.7431
      Cm = -0.0955     CD =  0.32913   =>   CDf =  0.00408    CDp =  0.32505

 Side 1  free  transition at x/c =  0.0552   35
 Side 2 forced transition at x/c =  1.0000   64

 174   rms: 0.1098E+00   max: 0.2340E+00   D at   81  2
       a = 26.000      CL =  0.7873
      Cm = -0.1011     CD =  0.31293   =>   CDf =  0.00420    CDp =  0.30873

 Side 1  free  transition at x/c =  0.0559   35
 Side 2 forced transition at x/c =  1.0000   64

 175   rms: 0.4274E-01   max: -.1406E+00   D at   36  1
       a = 26.000      CL =  0.7892
      Cm = -0.0982     CD =  0.28867   =>   CDf =  0.00414    CDp =  0.28453

 Side 1  free  transition at x/c =  0.0600   36
 Side 2 forced transition at x/c =  1.0000   64

 176   rms: 0.2993E+00   max: 0.2233E+01   D at   36  1   RLX: 0.672
       a = 26.000      CL =  0.7434
      Cm = -0.0956     CD =  0.32914   =>   CDf =  0.00408    CDp =  0.32505

 Side 1  free  transition at x/c =  0.0552   35
 Side 2 forced transition at x/c =  1.0000   64

 177   rms: 0.1096E+00   max: 0.2340E+00   D at   81  2
       a = 26.000      CL =  0.7872
      Cm = -0.1011     CD =  0.31284   =>   CDf =  0.00420    CDp =  0.30865

 Side 1  free  transition at x/c =  0.0559   35
 Side 2 forced transition at x/c =  1.0000   64

 178   rms: 0.4282E-01   max: -.1410E+00   D at   36  1
       a = 26.000      CL =  0.7892
      Cm = -0.0982     CD =  0.28861   =>   CDf =  0.00414    CDp =  0.28447

 Side 1  free  transition at x/c =  0.0600   36
 Side 2 forced transition at x/c =  1.0000   64

 179   rms: 0.3000E+00   max: 0.2237E+01   D at   36  1   RLX: 0.670
       a = 26.000      CL =  0.7431
      Cm = -0.0955     CD =  0.32912   =>   CDf =  0.00408    CDp =  0.32504

 Side 1  free  transition at x/c =  0.0552   35
 Side 2 forced transition at x/c =  1.0000   64

 180   rms: 0.1098E+00   max: 0.2340E+00   D at   81  2
       a = 26.000      CL =  0.7872
      Cm = -0.1011     CD =  0.31283   =>   CDf =  0.00420    CDp =  0.30863

 Side 1  free  transition at x/c =  0.0559   35
 Side 2 forced transition at x/c =  1.0000   64

 181   rms: 0.4247E-01   max: -.1382E+00   D at   36  1
       a = 26.000      CL =  0.7892
      Cm = -0.0982     CD =  0.28882   =>   CDf =  0.00414    CDp =  0.28468

 Side 1  free  transition at x/c =  0.0600   36
 Side 2 forced transition at x/c =  1.0000   64

 182   rms: 0.2986E+00   max: 0.2227E+01   D at   36  1   RLX: 0.674
       a = 26.000      CL =  0.7438
      Cm = -0.0957     CD =  0.32925   =>   CDf =  0.00408    CDp =  0.32516

 Side 1  free  transition at x/c =  0.0552   35
 Side 2 forced transition at x/c =  1.0000   64

 183   rms: 0.1094E+00   max: 0.2351E+00   D at   81  2
       a = 26.000      CL =  0.7871
      Cm = -0.1011     CD =  0.31283   =>   CDf =  0.00420    CDp =  0.30863

 Side 1  free  transition at x/c =  0.0559   35
 Side 2 forced transition at x/c =  1.0000   64

 184   rms: 0.4260E-01   max: -.1394E+00   D at   36  1
       a = 26.000      CL =  0.7892
      Cm = -0.0982     CD =  0.28874   =>   CDf =  0.00414    CDp =  0.28460

 Side 1  free  transition at x/c =  0.0600   36
 Side 2 forced transition at x/c =  1.0000   64

 185   rms: 0.2986E+00   max: 0.2228E+01   D at   36  1   RLX: 0.673
       a = 26.000      CL =  0.7438
      Cm = -0.0957     CD =  0.32924   =>   CDf =  0.00408    CDp =  0.32516

 Side 1  free  transition at x/c =  0.0552   35
 Side 2 forced transition at x/c =  1.0000   64

 186   rms: 0.1094E+00   max: 0.2352E+00   D at   81  2
       a = 26.000      CL =  0.7871
      Cm = -0.1011     CD =  0.31268   =>   CDf =  0.00420    CDp =  0.30849

 Side 1  free  transition at x/c =  0.0559   35
 Side 2 forced transition at x/c =  1.0000   64

 187   rms: 0.4286E-01   max: -.1409E+00   D at   36  1
       a = 26.000      CL =  0.7891
      Cm = -0.0982     CD =  0.28865   =>   CDf =  0.00414    CDp =  0.28451

 Side 1  free  transition at x/c =  0.0600   36
 Side 2 forced transition at x/c =  1.0000   64

 188   rms: 0.2995E+00   max: 0.2235E+01   D at   36  1   RLX: 0.671
       a = 26.000      CL =  0.7433
      Cm = -0.0956     CD =  0.32912   =>   CDf =  0.00408    CDp =  0.32504

 Side 1  free  transition at x/c =  0.0552   35
 Side 2 forced transition at x/c =  1.0000   64

 189   rms: 0.1097E+00   max: 0.2342E+00   D at   81  2
       a = 26.000      CL =  0.7873
      Cm = -0.1011     CD =  0.31295   =>   CDf =  0.00420    CDp =  0.30875

 Side 1  free  transition at x/c =  0.0559   35
 Side 2 forced transition at x/c =  1.0000   64

 190   rms: 0.4281E-01   max: -.1409E+00   D at   36  1
       a = 26.000      CL =  0.7891
      Cm = -0.0982     CD =  0.28867   =>   CDf =  0.00414    CDp =  0.28452

 Side 1  free  transition at x/c =  0.0600   36
 Side 2 forced transition at x/c =  1.0000   64

 191   rms: 0.2997E+00   max: 0.2236E+01   D at   36  1   RLX: 0.671
       a = 26.000      CL =  0.7433
      Cm = -0.0956     CD =  0.32911   =>   CDf =  0.00408    CDp =  0.32503

 Side 1  free  transition at x/c =  0.0552   35
 Side 2 forced transition at x/c =  1.0000   64

 192   rms: 0.1098E+00   max: 0.2342E+00   D at   81  2
       a = 26.000      CL =  0.7873
      Cm = -0.1011     CD =  0.31296   =>   CDf =  0.00420    CDp =  0.30876

 Side 1  free  transition at x/c =  0.0559   35
 Side 2 forced transition at x/c =  1.0000   64

 193   rms: 0.4279E-01   max: -.1408E+00   D at   36  1
       a = 26.000      CL =  0.7892
      Cm = -0.0982     CD =  0.28869   =>   CDf =  0.00414    CDp =  0.28455

 Side 1  free  transition at x/c =  0.0600   36
 Side 2 forced transition at x/c =  1.0000   64

 194   rms: 0.2994E+00   max: 0.2234E+01   D at   36  1   RLX: 0.672
       a = 26.000      CL =  0.7434
      Cm = -0.0956     CD =  0.32912   =>   CDf =  0.00408    CDp =  0.32504

 Side 1  free  transition at x/c =  0.0552   35
 Side 2 forced transition at x/c =  1.0000   64

 195   rms: 0.1097E+00   max: 0.2340E+00   D at   81  2
       a = 26.000      CL =  0.7873
      Cm = -0.1011     CD =  0.31291   =>   CDf =  0.00420    CDp =  0.30871

 Side 1  free  transition at x/c =  0.0559   35
 Side 2 forced transition at x/c =  1.0000   64

 196   rms: 0.4253E-01   max: -.1393E+00   D at   36  1
       a = 26.000      CL =  0.7892
      Cm = -0.0982     CD =  0.28878   =>   CDf =  0.00414    CDp =  0.28463

 Side 1  free  transition at x/c =  0.0600   36
 Side 2 forced transition at x/c =  1.0000   64

 197   rms: 0.2989E+00   max: 0.2229E+01   D at   36  1   RLX: 0.673
       a = 26.000      CL =  0.7436
      Cm = -0.0957     CD =  0.32918   =>   CDf =  0.00408    CDp =  0.32509

 Side 1  free  transition at x/c =  0.0552   35
 Side 2 forced transition at x/c =  1.0000   64

 198   rms: 0.1096E+00   max: 0.2347E+00   D at   81  2
       a = 26.000      CL =  0.7872
      Cm = -0.1011     CD =  0.31290   =>   CDf =  0.00420    CDp =  0.30870

 Side 1  free  transition at x/c =  0.0559   35
 Side 2 forced transition at x/c =  1.0000   64

 199   rms: 0.4267E-01   max: -.1398E+00   D at   36  1
       a = 26.000      CL =  0.7892
      Cm = -0.0982     CD =  0.28872   =>   CDf =  0.00414    CDp =  0.28458

 Side 1  free  transition at x/c =  0.0600   36
 Side 2 forced transition at x/c =  1.0000   64

 200   rms: 0.2989E+00   max: 0.2230E+01   D at   36  1   RLX: 0.673
       a = 26.000      CL =  0.7435
      Cm = -0.0957     CD =  0.32915   =>   CDf =  0.00408    CDp =  0.32507

 Side 1  free  transition at x/c =  0.0552   35
 Side 2 forced transition at x/c =  1.0000   64

 201   rms: 0.1096E+00   max: 0.2342E+00   D at   81  2
       a = 26.000      CL =  0.7873
      Cm = -0.1011     CD =  0.31292   =>   CDf =  0.00420    CDp =  0.30872

 Side 1  free  transition at x/c =  0.0559   35
 Side 2 forced transition at x/c =  1.0000   64

 202   rms: 0.4251E-01   max: -.1389E+00   D at   36  1
       a = 26.000      CL =  0.7892
      Cm = -0.0982     CD =  0.28883   =>   CDf =  0.00414    CDp =  0.28468

 Side 1  free  transition at x/c =  0.0600   36
 Side 2 forced transition at x/c =  1.0000   64

 203   rms: 0.2988E+00   max: 0.2228E+01   D at   36  1   RLX: 0.673
       a = 26.000      CL =  0.7438
      Cm = -0.0957     CD =  0.32925   =>   CDf =  0.00408    CDp =  0.32516

 Side 1  free  transition at x/c =  0.0552   35
 Side 2 forced transition at x/c =  1.0000   64

 204   rms: 0.1094E+00   max: 0.2354E+00   D at   81  2
       a = 26.000      CL =  0.7872
      Cm = -0.1011     CD =  0.31288   =>   CDf =  0.00420    CDp =  0.30868

 Side 1  free  transition at x/c =  0.0559   35
 Side 2 forced transition at x/c =  1.0000   64

 205   rms: 0.4282E-01   max: -.1409E+00   D at   36  1
       a = 26.000      CL =  0.7892
      Cm = -0.0982     CD =  0.28867   =>   CDf =  0.00414    CDp =  0.28452
 VISCAL:  Convergence failed
 Calculating wake trajectory ...
 Calculating source influence matrix ...

 Solving BL system ...

 Side 1  free  transition at x/c =  0.0600   36
 Side 2 forced transition at x/c =  1.0000   64

   1   rms: 0.3371E+00   max: 0.2422E+01   D at   36  1   RLX: 0.178
       a = 27.000      CL =  0.7020
      Cm = -0.0710     CD =  0.28504   =>   CDf =  0.00407    CDp =  0.28097

 Side 1  free  transition at x/c =  0.0566   36
 Side 2 forced transition at x/c =  1.0000   64

   2   rms: 0.3492E+00   max: 0.2281E+01   T at   36  1   RLX: 0.658
       a = 27.000      CL =  0.8067
      Cm = -0.0912     CD =  0.31812   =>   CDf =  0.00381    CDp =  0.31430

 Side 1  free  transition at x/c =  0.0540   36
 Side 2 forced transition at x/c =  1.0000   63

   3   rms: 0.6212E+00   max: 0.2992E+01   D at   37  1   RLX: 0.501
       a = 27.000      CL =  0.7548
      Cm = -0.0972     CD =  0.33797   =>   CDf =  0.00419    CDp =  0.33378

 Side 1  free  transition at x/c =  0.0502   35
 Side 2 forced transition at x/c =  1.0000   64

   4   rms: 0.2642E+00   max: 0.8851E+00   D at   36  1
       a = 27.000      CL =  0.7803
      Cm = -0.1121     CD =  0.39859   =>   CDf =  0.00410    CDp =  0.39449

 Side 1  free  transition at x/c =  0.0497   35
 Side 2 forced transition at x/c =  1.0000   64

   5   rms: 0.6089E-01   max: 0.3095E+00   D at   85  2
       a = 27.000      CL =  0.7795
      Cm = -0.1072     CD =  0.31536   =>   CDf =  0.00409    CDp =  0.31127

 Side 1  free  transition at x/c =  0.0507   35
 Side 2 forced transition at x/c =  1.0000   64

   6   rms: 0.5331E-02   max: -.2583E-01   D at   35  1
       a = 27.000      CL =  0.7790
      Cm = -0.1070     CD =  0.30358   =>   CDf =  0.00407    CDp =  0.29951

 Side 1  free  transition at x/c =  0.0507   35
 Side 2 forced transition at x/c =  1.0000   64

   7   rms: 0.2001E-02   max: -.1168E-01   D at   85  2
       a = 27.000      CL =  0.7800
      Cm = -0.1071     CD =  0.30481   =>   CDf =  0.00406    CDp =  0.30074

 Side 1  free  transition at x/c =  0.0507   35
 Side 2 forced transition at x/c =  1.0000   64

   8   rms: 0.2866E-03   max: -.2474E-02   D at   85  2
       a = 27.000      CL =  0.7801
      Cm = -0.1071     CD =  0.30509   =>   CDf =  0.00406    CDp =  0.30103

 Side 1  free  transition at x/c =  0.0507   35
 Side 2 forced transition at x/c =  1.0000   64

   9   rms: 0.9615E-05   max: -.7970E-04   D at   85  2
       a = 27.000      CL =  0.7801
      Cm = -0.1071     CD =  0.30510   =>   CDf =  0.00406    CDp =  0.30104

 Point added to stored polar  1
 Point written to save file  out.txt                                         
 Point written to dump file log.txt                                         
 Calculating wake trajectory ...
 Calculating source influence matrix ...

 Solving BL system ...

 Side 1  free  transition at x/c =  0.0507   35
 Side 2 forced transition at x/c =  1.0000   64

   1   rms: 0.7088E-01   max: 0.1109E+01   T at   35  1   RLX: 0.172
       a = 28.000      CL =  0.7774
      Cm = -0.1079     CD =  0.30826   =>   CDf =  0.00405    CDp =  0.30421

 Side 1  free  transition at x/c =  0.0496   35
 Side 2 forced transition at x/c =  1.0000   64

   2   rms: 0.7082E-01   max: 0.9158E+00   T at   35  1
       a = 28.000      CL =  0.7945
      Cm = -0.1109     CD =  0.32103   =>   CDf =  0.00376    CDp =  0.31727

 Side 1  free  transition at x/c =  0.0467   35
 Side 2 forced transition at x/c =  1.0000   63

   3   rms: 0.3506E-01   max: 0.2159E+00   D at   36  1
       a = 28.000      CL =  0.7935
      Cm = -0.1116     CD =  0.32482   =>   CDf =  0.00395    CDp =  0.32086

 Side 1  free  transition at x/c =  0.0471   35
 Side 2 forced transition at x/c =  1.0000   63

   4   rms: 0.1035E-01   max: 0.4262E-01   D at   83  2
       a = 28.000      CL =  0.7910
      Cm = -0.1112     CD =  0.32102   =>   CDf =  0.00397    CDp =  0.31705

 Side 1  free  transition at x/c =  0.0472   35
 Side 2 forced transition at x/c =  1.0000   63

   5   rms: 0.2722E-02   max: 0.1880E-01   D at   85  2
       a = 28.000      CL =  0.7900
      Cm = -0.1110     CD =  0.31836   =>   CDf =  0.00397    CDp =  0.31439

 Side 1  free  transition at x/c =  0.0472   35
 Side 2 forced transition at x/c =  1.0000   63

   6   rms: 0.2934E-03   max: -.1792E-02   D at   98  1
       a = 28.000      CL =  0.7899
      Cm = -0.1110     CD =  0.31831   =>   CDf =  0.00397    CDp =  0.31434

 Side 1  free  transition at x/c =  0.0472   35
 Side 2 forced transition at x/c =  1.0000   63

   7   rms: 0.4122E-04   max: -.3415E-03   D at   85  2
       a = 28.000      CL =  0.7899
      Cm = -0.1110     CD =  0.31835   =>   CDf =  0.00397    CDp =  0.31438

 Point added to stored polar  1
 Point written to save file  out.txt                                         
 Point written to dump file log.txt                                         
 Calculating wake trajectory ...
 Calculating source influence matrix ...

 Solving BL system ...

 Side 1  free  transition at x/c =  0.0472   35
 Side 2 forced transition at x/c =  1.0000   63

   1   rms: 0.2041E+00   max: -.1337E+01   T at   36  1   RLX: 0.166
       a = 29.000      CL =  0.7833
      Cm = -0.1127     CD =  0.32202   =>   CDf =  0.00395    CDp =  0.31806

 Side 1  free  transition at x/c =  0.0463   35
 Side 2 forced transition at x/c =  1.0000   63

   2   rms: 0.7902E-01   max: 0.9521E+00   T at   35  1   RLX: 0.917
       a = 29.000      CL =  0.7930
      Cm = -0.1177     CD =  0.33435   =>   CDf =  0.00395    CDp =  0.33040

 Side 1  free  transition at x/c =  0.0410   35
 Side 2 forced transition at x/c =  1.0000   63

   3   rms: 0.1067E+00   max: -.5217E+00   D at   36  1   RLX: 0.958
       a = 29.000      CL =  0.7689
      Cm = -0.1152     CD =  0.29997   =>   CDf =  0.00390    CDp =  0.29607

 Side 1  free  transition at x/c =  0.0417   35
 Side 2 forced transition at x/c =  1.0000   63

   4   rms: 0.6552E-01   max: -.2242E+00   D at   82  2
       a = 29.000      CL =  0.7825
      Cm = -0.1147     CD =  0.31636   =>   CDf =  0.00392    CDp =  0.31244

 Side 1  free  transition at x/c =  0.0419   35
 Side 2 forced transition at x/c =  1.0000   63

   5   rms: 0.2232E-01   max: -.1513E+00   D at   84  2
       a = 29.000      CL =  0.7933
      Cm = -0.1161     CD =  0.33026   =>   CDf =  0.00388    CDp =  0.32638

 Side 1  free  transition at x/c =  0.0417   35
 Side 2 forced transition at x/c =  1.0000   63

   6   rms: 0.2284E-02   max: -.2218E-01   D at   84  2
       a = 29.000      CL =  0.7943
      Cm = -0.1163     CD =  0.33050   =>   CDf =  0.00387    CDp =  0.32663

 Side 1  free  transition at x/c =  0.0416   35
 Side 2 forced transition at x/c =  1.0000   63

   7   rms: 0.1848E-03   max: -.1078E-02   D at   84  2
       a = 29.000      CL =  0.7943
      Cm = -0.1163     CD =  0.33055   =>   CDf =  0.00387    CDp =  0.32668

 Side 1  free  transition at x/c =  0.0416   35
 Side 2 forced transition at x/c =  1.0000   63

   8   rms: 0.3894E-04   max: -.3081E-03   D at   84  2
       a = 29.000      CL =  0.7943
      Cm = -0.1163     CD =  0.33059   =>   CDf =  0.00387    CDp =  0.32672

 Point added to stored polar  1
 Point written to save file  out.txt                                         
 Point written to dump file log.txt                                         
 Calculating wake trajectory ...
 Calculating source influence matrix ...

 Solving BL system ...

 Side 1  free  transition at x/c =  0.0416   35
 Side 2 forced transition at x/c =  1.0000   63

   1   rms: 0.1113E+00   max: 0.1352E+01   T at   35  1   RLX: 0.162
       a = 30.000      CL =  0.7908
      Cm = -0.1169     CD =  0.33328   =>   CDf =  0.00357    CDp =  0.32971

 Side 1  free  transition at x/c =  0.0409   36
 Side 2 forced transition at x/c =  1.0000   62

   2   rms: 0.1965E+00   max: 0.2079E+01   T at    2  1   RLX: 0.516
       a = 30.000      CL =  0.8039
      Cm = -0.1182     CD =  0.33868   =>   CDf =  0.00383    CDp =  0.33485

 Side 1  free  transition at x/c =  0.0401   35
 Side 2 forced transition at x/c =  1.0000   62

   3   rms: 0.8429E-01   max: 0.4015E+00   D at   36  1
       a = 30.000      CL =  0.8051
      Cm = -0.1233     CD =  0.36289   =>   CDf =  0.00379    CDp =  0.35911

 Side 1  free  transition at x/c =  0.0382   35
 Side 2 forced transition at x/c =  1.0000   62

   4   rms: 0.2166E-01   max: -.2106E+00   D at   35  1
       a = 30.000      CL =  0.8002
      Cm = -0.1214     CD =  0.34765   =>   CDf =  0.00379    CDp =  0.34387

 Side 1  free  transition at x/c =  0.0388   35
 Side 2 forced transition at x/c =  1.0000   62

   5   rms: 0.3043E-02   max: 0.2703E-01   D at   83  2
       a = 30.000      CL =  0.7993
      Cm = -0.1213     CD =  0.34452   =>   CDf =  0.00378    CDp =  0.34074

 Side 1  free  transition at x/c =  0.0388   35
 Side 2 forced transition at x/c =  1.0000   62

   6   rms: 0.5691E-03   max: 0.3773E-02   D at   84  2
       a = 30.000      CL =  0.7991
      Cm = -0.1212     CD =  0.34406   =>   CDf =  0.00378    CDp =  0.34028

 Side 1  free  transition at x/c =  0.0388   35
 Side 2 forced transition at x/c =  1.0000   62

   7   rms: 0.8051E-04   max: 0.8247E-03   D at   84  2
       a = 30.000      CL =  0.7990
      Cm = -0.1212     CD =  0.34397   =>   CDf =  0.00378    CDp =  0.34019

 Point added to stored polar  1
 Point written to save file  out.txt                                         
 Point written to dump file log.txt                                         

.OPERva   c>  
 Polar accumulation disabled

.OPERv   c>  
 XFOIL   c>  